XFOIL         Version 6.96

Calculated polar for: NACA 1412

1 1 Reynolds number fixed          Mach number fixed

xtrf =   1.000 (top)        1.000 (bottom)
Mach =   0.000     Re =     0.050 e 6     Ncrit =   9.000

alpha    CL        CD       CDp       CM     Top_Xtr  Bot_Xtr
------ -------- --------- --------- -------- -------- --------
-9.250  -0.4999   0.10753   0.09979   0.0051   1.0000   0.3523
-9.000  -0.6909   0.07418   0.06661  -0.0317   1.0000   0.1742
-8.750  -0.6907   0.06927   0.06166  -0.0318   1.0000   0.1732
-8.500  -0.6975   0.06418   0.05644  -0.0317   1.0000   0.1721
-8.250  -0.7049   0.05918   0.05122  -0.0312   1.0000   0.1713
-8.000  -0.7098   0.05444   0.04619  -0.0302   1.0000   0.1708
-7.750  -0.7107   0.05007   0.04144  -0.0288   1.0000   0.1707
-7.500  -0.7078   0.04611   0.03703  -0.0271   1.0000   0.1715
-7.250  -0.7024   0.04262   0.03295  -0.0251   1.0000   0.1738
-7.000  -0.6838   0.04055   0.03098  -0.0238   1.0000   0.1800
-6.750  -0.6704   0.03806   0.02813  -0.0221   1.0000   0.1863
-6.500  -0.6548   0.03551   0.02524  -0.0206   1.0000   0.1923
-6.250  -0.6361   0.03366   0.02326  -0.0191   1.0000   0.2018
-6.000  -0.6172   0.03198   0.02150  -0.0177   1.0000   0.2144
-5.750  -0.5978   0.03032   0.01975  -0.0162   1.0000   0.2293
-5.500  -0.5785   0.02889   0.01825  -0.0147   1.0000   0.2494
-5.250  -0.5588   0.02757   0.01702  -0.0132   1.0000   0.2734
-5.000  -0.5396   0.02640   0.01591  -0.0116   1.0000   0.3034
-4.750  -0.5204   0.02537   0.01507  -0.0098   1.0000   0.3381
-4.500  -0.5014   0.02442   0.01431  -0.0080   1.0000   0.3789
-4.250  -0.4824   0.02354   0.01370  -0.0060   1.0000   0.4236
-4.000  -0.4635   0.02277   0.01317  -0.0038   1.0000   0.4732
-3.750  -0.4449   0.02212   0.01279  -0.0015   1.0000   0.5271
-3.500  -0.4272   0.02162   0.01256   0.0013   1.0000   0.5829
-3.250  -0.4103   0.02127   0.01247   0.0047   1.0000   0.6404
-3.000  -0.3946   0.02104   0.01246   0.0085   1.0000   0.6995
-2.750  -0.3794   0.02097   0.01257   0.0129   1.0000   0.7594
-2.500  -0.3602   0.02114   0.01286   0.0170   1.0000   0.8207
-2.250  -0.3153   0.02173   0.01336   0.0168   1.0000   0.8888
-2.000  -0.1698   0.02270   0.01379  -0.0025   1.0000   0.9559
-1.750  -0.0265   0.02209   0.01272  -0.0252   1.0000   1.0000
-1.500  -0.0445   0.02156   0.01220  -0.0206   1.0000   1.0000
-1.250  -0.0644   0.02118   0.01180  -0.0153   1.0000   1.0000
-1.000  -0.0811   0.02094   0.01153  -0.0102   1.0000   1.0000
-0.750  -0.0901   0.02088   0.01139  -0.0060   1.0000   1.0000
-0.500  -0.0918   0.02098   0.01138  -0.0028   1.0000   1.0000
-0.250  -0.0875   0.02122   0.01151  -0.0005   1.0000   1.0000
0.000  -0.0791   0.02158   0.01176   0.0010   1.0000   1.0000
0.250  -0.0682   0.02203   0.01212   0.0021   1.0000   1.0000
0.500  -0.0558   0.02257   0.01258   0.0029   1.0000   1.0000
0.750  -0.0425   0.02320   0.01314   0.0034   1.0000   1.0000
1.000   0.0185   0.02438   0.01427  -0.0047   0.9836   1.0000
1.250   0.0758   0.02535   0.01522  -0.0119   0.9631   1.0000
1.500   0.1372   0.02626   0.01614  -0.0193   0.9438   1.0000
1.750   0.1837   0.02691   0.01683  -0.0238   0.9216   1.0000
2.000   0.2367   0.02747   0.01745  -0.0291   0.9003   1.0000
2.250   0.2965   0.02782   0.01790  -0.0350   0.8803   1.0000
2.500   0.3372   0.02818   0.01835  -0.0375   0.8573   1.0000
2.750   0.3910   0.02822   0.01852  -0.0415   0.8360   1.0000
3.000   0.4472   0.02791   0.01837  -0.0452   0.8159   1.0000
3.250   0.4775   0.02806   0.01861  -0.0448   0.7916   1.0000
3.500   0.5214   0.02763   0.01831  -0.0457   0.7694   1.0000
3.750   0.5547   0.02742   0.01819  -0.0449   0.7454   1.0000
4.000   0.5881   0.02707   0.01794  -0.0438   0.7208   1.0000
4.250   0.6162   0.02691   0.01784  -0.0419   0.6949   1.0000
4.500   0.6484   0.02644   0.01738  -0.0401   0.6691   1.0000
4.750   0.6714   0.02646   0.01745  -0.0376   0.6395   1.0000
5.000   0.6955   0.02641   0.01739  -0.0351   0.6088   1.0000
5.250   0.7194   0.02636   0.01730  -0.0326   0.5762   1.0000
5.500   0.7426   0.02638   0.01724  -0.0300   0.5417   1.0000
5.750   0.7660   0.02644   0.01713  -0.0274   0.5055   1.0000
6.000   0.7841   0.02688   0.01751  -0.0247   0.4655   1.0000
6.250   0.8050   0.02718   0.01753  -0.0221   0.4246   1.0000
6.500   0.8212   0.02783   0.01806  -0.0193   0.3812   1.0000
6.750   0.8381   0.02860   0.01856  -0.0167   0.3392   1.0000
7.000   0.8547   0.02959   0.01930  -0.0143   0.3001   1.0000
7.250   0.8727   0.03088   0.02031  -0.0124   0.2665   1.0000
7.500   0.8903   0.03247   0.02187  -0.0106   0.2386   1.0000
7.750   0.9114   0.03420   0.02338  -0.0093   0.2171   1.0000
8.000   0.9315   0.03624   0.02548  -0.0081   0.2012   1.0000
8.250   0.9527   0.03827   0.02751  -0.0070   0.1882   1.0000
8.500   0.9668   0.04062   0.03028  -0.0052   0.1783   1.0000
8.750   0.9870   0.04319   0.03289  -0.0043   0.1712   1.0000
9.000   0.9950   0.04637   0.03663  -0.0022   0.1667   1.0000
9.250   1.0073   0.04921   0.03971  -0.0007   0.1617   1.0000
9.500   1.0233   0.05216   0.04268   0.0002   0.1568   1.0000
9.750   1.0172   0.05608   0.04717   0.0029   0.1549   1.0000
10.000   1.0079   0.06045   0.05196   0.0051   0.1540   1.0000
10.250   0.9926   0.06524   0.05710   0.0071   0.1542   1.0000
10.500   0.9703   0.07043   0.06255   0.0087   0.1550   1.0000
10.750   0.9445   0.07571   0.06799   0.0100   0.1561   1.0000
11.000   0.9229   0.08150   0.07387   0.0099   0.1572   1.0000
11.250   0.7325   0.11804   0.11023  -0.0187   0.1995   1.0000
11.500   0.7469   0.12275   0.11499  -0.0186   0.2026   1.0000

XFOIL         Version 6.96

Calculated polar for: NACA 1412

1 1 Reynolds number fixed          Mach number fixed

xtrf =   1.000 (top)        1.000 (bottom)
Mach =   0.000     Re =     0.100 e 6     Ncrit =   9.000

alpha    CL        CD       CDp       CM     Top_Xtr  Bot_Xtr
------ -------- --------- --------- -------- -------- --------
-10.500  -0.7131   0.07555   0.07014  -0.0405   1.0000   0.0995
-10.250  -0.7225   0.07035   0.06491  -0.0414   1.0000   0.0980
-10.000  -0.7491   0.06473   0.05918  -0.0416   1.0000   0.0962
-9.750  -0.7792   0.05833   0.05251  -0.0411   1.0000   0.0941
-9.500  -0.7976   0.05289   0.04670  -0.0395   1.0000   0.0932
-9.250  -0.8037   0.04875   0.04221  -0.0375   1.0000   0.0937
-9.000  -0.8042   0.04510   0.03819  -0.0354   1.0000   0.0946
-8.750  -0.8011   0.04172   0.03440  -0.0331   1.0000   0.0954
-8.500  -0.7942   0.03869   0.03095  -0.0308   1.0000   0.0964
-8.250  -0.7844   0.03626   0.02807  -0.0285   1.0000   0.0985
-8.000  -0.7728   0.03437   0.02565  -0.0261   1.0000   0.1005
-7.750  -0.7556   0.03177   0.02298  -0.0249   1.0000   0.1029
-7.500  -0.7370   0.03013   0.02124  -0.0235   1.0000   0.1054
-7.250  -0.7180   0.02874   0.01969  -0.0221   1.0000   0.1090
-7.000  -0.6993   0.02747   0.01809  -0.0204   1.0000   0.1134
-6.750  -0.6788   0.02583   0.01643  -0.0193   1.0000   0.1176
-6.500  -0.6579   0.02469   0.01527  -0.0180   1.0000   0.1228
-6.250  -0.6372   0.02360   0.01395  -0.0166   1.0000   0.1294
-6.000  -0.6166   0.02252   0.01305  -0.0155   1.0000   0.1384
-5.750  -0.5962   0.02150   0.01205  -0.0142   1.0000   0.1495
-5.500  -0.5758   0.02055   0.01116  -0.0129   1.0000   0.1639
-5.250  -0.5560   0.01973   0.01045  -0.0115   1.0000   0.1833
-5.000  -0.5362   0.01896   0.00980  -0.0103   1.0000   0.2081
-4.750  -0.5162   0.01831   0.00927  -0.0090   1.0000   0.2378
-4.500  -0.4964   0.01769   0.00888  -0.0079   1.0000   0.2717
-4.250  -0.4763   0.01715   0.00856  -0.0067   1.0000   0.3108
-4.000  -0.4559   0.01666   0.00831  -0.0056   1.0000   0.3547
-3.750  -0.4350   0.01623   0.00811  -0.0046   1.0000   0.4022
-3.500  -0.4139   0.01585   0.00798  -0.0036   1.0000   0.4520
-3.250  -0.3927   0.01553   0.00792  -0.0024   1.0000   0.5038
-3.000  -0.3718   0.01528   0.00792  -0.0012   1.0000   0.5582
-2.750  -0.3512   0.01510   0.00799   0.0002   1.0000   0.6146
-2.500  -0.3315   0.01500   0.00815   0.0019   1.0000   0.6711
-2.250  -0.3127   0.01499   0.00834   0.0039   1.0000   0.7291
-2.000  -0.2958   0.01508   0.00863   0.0066   1.0000   0.7850
-1.750  -0.2796   0.01528   0.00898   0.0094   1.0000   0.8424
-1.500  -0.2488   0.01568   0.00943   0.0096   0.9971   0.9014
-1.250  -0.1819   0.01628   0.00995   0.0026   0.9909   0.9512
-1.000  -0.0985   0.01681   0.01032  -0.0082   0.9873   0.9817
-0.750  -0.0100   0.01707   0.01045  -0.0205   0.9846   1.0000
-0.500   0.0466   0.01700   0.01028  -0.0274   0.9724   1.0000
-0.250   0.1020   0.01688   0.01011  -0.0336   0.9598   1.0000
0.000   0.1566   0.01672   0.00990  -0.0394   0.9466   1.0000
0.250   0.2111   0.01648   0.00964  -0.0449   0.9332   1.0000
0.500   0.2607   0.01617   0.00932  -0.0491   0.9183   1.0000
0.750   0.3044   0.01582   0.00897  -0.0519   0.9016   1.0000
1.000   0.3417   0.01548   0.00863  -0.0532   0.8834   1.0000
1.250   0.3736   0.01516   0.00829  -0.0534   0.8646   1.0000
1.500   0.3975   0.01500   0.00810  -0.0521   0.8425   1.0000
1.750   0.4213   0.01484   0.00791  -0.0506   0.8208   1.0000
2.000   0.4453   0.01470   0.00771  -0.0491   0.8001   1.0000
2.250   0.4667   0.01468   0.00765  -0.0473   0.7767   1.0000
2.500   0.4890   0.01466   0.00756  -0.0456   0.7539   1.0000
2.750   0.5114   0.01468   0.00750  -0.0439   0.7311   1.0000
3.000   0.5331   0.01477   0.00754  -0.0422   0.7069   1.0000
3.250   0.5562   0.01486   0.00752  -0.0406   0.6846   1.0000
3.500   0.5775   0.01503   0.00765  -0.0390   0.6593   1.0000
3.750   0.6002   0.01517   0.00768  -0.0374   0.6358   1.0000
4.000   0.6214   0.01537   0.00784  -0.0358   0.6092   1.0000
4.250   0.6432   0.01558   0.00795  -0.0342   0.5834   1.0000
4.500   0.6646   0.01581   0.00811  -0.0325   0.5566   1.0000
4.750   0.6856   0.01608   0.00831  -0.0309   0.5288   1.0000
5.000   0.7065   0.01637   0.00851  -0.0293   0.5007   1.0000
5.250   0.7269   0.01668   0.00871  -0.0276   0.4709   1.0000
5.500   0.7464   0.01700   0.00896  -0.0257   0.4378   1.0000
5.750   0.7650   0.01736   0.00922  -0.0239   0.4009   1.0000
6.000   0.7830   0.01779   0.00949  -0.0219   0.3624   1.0000
6.250   0.8005   0.01834   0.00989  -0.0200   0.3216   1.0000
6.500   0.8171   0.01906   0.01038  -0.0181   0.2815   1.0000
6.750   0.8334   0.01994   0.01106  -0.0162   0.2412   1.0000
7.000   0.8491   0.02100   0.01187  -0.0143   0.2062   1.0000
7.250   0.8652   0.02218   0.01285  -0.0125   0.1769   1.0000
7.500   0.8821   0.02347   0.01393  -0.0109   0.1552   1.0000
7.750   0.9013   0.02478   0.01515  -0.0095   0.1395   1.0000
8.000   0.9227   0.02627   0.01643  -0.0086   0.1284   1.0000
8.250   0.9440   0.02742   0.01775  -0.0074   0.1197   1.0000
8.500   0.9672   0.02901   0.01923  -0.0069   0.1129   1.0000
8.750   0.9891   0.03040   0.02084  -0.0059   0.1076   1.0000
9.000   1.0124   0.03194   0.02240  -0.0053   0.1035   1.0000
9.250   1.0363   0.03417   0.02462  -0.0050   0.0998   1.0000
9.500   1.0535   0.03579   0.02663  -0.0035   0.0966   1.0000
9.750   1.0716   0.03765   0.02874  -0.0022   0.0936   1.0000
10.000   1.0893   0.03971   0.03098  -0.0011   0.0914   1.0000
10.250   1.1076   0.04195   0.03330  -0.0003   0.0889   1.0000
10.500   1.1188   0.04512   0.03673   0.0012   0.0870   1.0000
10.750   1.1212   0.04766   0.03977   0.0039   0.0856   1.0000
11.000   1.1210   0.05082   0.04336   0.0065   0.0848   1.0000
11.250   1.1155   0.05423   0.04717   0.0092   0.0841   1.0000
11.500   1.1039   0.05780   0.05111   0.0120   0.0836   1.0000
11.750   1.0846   0.06140   0.05500   0.0152   0.0834   1.0000
12.000   1.0593   0.06544   0.05930   0.0177   0.0835   1.0000
12.250   1.0298   0.07040   0.06450   0.0184   0.0840   1.0000
12.500   0.9970   0.07656   0.07086   0.0171   0.0849   1.0000
12.750   0.9639   0.08402   0.07846   0.0139   0.0859   1.0000
13.000   0.9351   0.09232   0.08686   0.0098   0.0868   1.0000
13.250   0.9158   0.10047   0.09505   0.0063   0.0876   1.0000

XFOIL         Version 6.96

Calculated polar for: NACA 1412

1 1 Reynolds number fixed          Mach number fixed

xtrf =   1.000 (top)        1.000 (bottom)
Mach =   0.000     Re =     0.200 e 6     Ncrit =   9.000

alpha    CL        CD       CDp       CM     Top_Xtr  Bot_Xtr
------ -------- --------- --------- -------- -------- --------
-12.500  -0.8958   0.06212   0.05756  -0.0507   1.0000   0.0460
-12.250  -0.9216   0.05755   0.05277  -0.0514   1.0000   0.0459
-12.000  -0.9456   0.05347   0.04846  -0.0497   1.0000   0.0461
-11.750  -0.9589   0.04964   0.04446  -0.0477   1.0000   0.0466
-11.500  -0.9498   0.04782   0.04266  -0.0468   1.0000   0.0477
-11.250  -0.9376   0.04652   0.04136  -0.0457   1.0000   0.0489
-11.000  -0.9383   0.04388   0.03849  -0.0438   1.0000   0.0498
-10.750  -0.9376   0.04113   0.03545  -0.0417   1.0000   0.0507
-10.500  -0.9341   0.03867   0.03265  -0.0395   1.0000   0.0520
-10.250  -0.9285   0.03652   0.03010  -0.0372   1.0000   0.0534
-10.000  -0.9203   0.03482   0.02800  -0.0347   1.0000   0.0544
-9.750  -0.9080   0.03178   0.02483  -0.0334   1.0000   0.0559
-9.500  -0.8908   0.03059   0.02361  -0.0321   1.0000   0.0575
-9.250  -0.8739   0.02950   0.02243  -0.0306   1.0000   0.0593
-9.000  -0.8574   0.02825   0.02099  -0.0289   1.0000   0.0611
-8.750  -0.8403   0.02701   0.01950  -0.0272   1.0000   0.0627
-8.500  -0.8227   0.02623   0.01847  -0.0254   1.0000   0.0641
-8.250  -0.8043   0.02418   0.01642  -0.0242   1.0000   0.0663
-8.000  -0.7849   0.02326   0.01548  -0.0229   1.0000   0.0682
-7.750  -0.7655   0.02239   0.01454  -0.0215   1.0000   0.0702
-7.500  -0.7459   0.02164   0.01367  -0.0200   1.0000   0.0727
-7.250  -0.7260   0.02100   0.01289  -0.0185   1.0000   0.0748
-7.000  -0.7068   0.01971   0.01163  -0.0171   1.0000   0.0774
-6.750  -0.6874   0.01898   0.01093  -0.0157   1.0000   0.0804
-6.500  -0.6676   0.01838   0.01029  -0.0143   1.0000   0.0840
-6.250  -0.6477   0.01774   0.00960  -0.0129   1.0000   0.0883
-6.000  -0.6287   0.01701   0.00895  -0.0115   1.0000   0.0940
-5.750  -0.6083   0.01649   0.00838  -0.0102   1.0000   0.1012
-5.500  -0.5887   0.01583   0.00781  -0.0089   1.0000   0.1118
-5.250  -0.5684   0.01527   0.00733  -0.0078   1.0000   0.1270
-5.000  -0.5474   0.01476   0.00693  -0.0068   1.0000   0.1469
-4.750  -0.5258   0.01434   0.00663  -0.0060   1.0000   0.1705
-4.500  -0.5038   0.01396   0.00639  -0.0053   1.0000   0.1967
-4.250  -0.4816   0.01365   0.00621  -0.0046   1.0000   0.2260
-4.000  -0.4594   0.01338   0.00609  -0.0041   1.0000   0.2587
-3.750  -0.4189   0.01306   0.00597  -0.0071   0.9955   0.3055
-3.500  -0.3783   0.01272   0.00587  -0.0102   0.9901   0.3588
-3.250  -0.3367   0.01239   0.00580  -0.0133   0.9846   0.4185
-3.000  -0.2984   0.01206   0.00571  -0.0157   0.9777   0.4747
-2.750  -0.2566   0.01176   0.00564  -0.0186   0.9723   0.5326
-2.500  -0.2208   0.01147   0.00557  -0.0201   0.9640   0.5859
-2.250  -0.1788   0.01120   0.00551  -0.0228   0.9591   0.6417
-2.000  -0.1450   0.01096   0.00547  -0.0237   0.9499   0.6916
-1.750  -0.1036   0.01073   0.00541  -0.0259   0.9449   0.7411
-1.500  -0.0721   0.01055   0.00537  -0.0259   0.9349   0.7827
-1.250  -0.0345   0.01038   0.00530  -0.0270   0.9287   0.8200
-1.000  -0.0054   0.01029   0.00528  -0.0263   0.9170   0.8520
-0.750   0.0267   0.01023   0.00524  -0.0261   0.9068   0.8805
-0.500   0.0614   0.01017   0.00519  -0.0264   0.8968   0.9043
-0.250   0.0934   0.01017   0.00516  -0.0263   0.8830   0.9261
0.000   0.1299   0.01017   0.00513  -0.0272   0.8688   0.9430
0.250   0.1722   0.01018   0.00508  -0.0294   0.8535   0.9553
0.500   0.2180   0.01017   0.00501  -0.0324   0.8365   0.9651
0.750   0.2626   0.01015   0.00491  -0.0354   0.8178   0.9753
1.000   0.3073   0.01014   0.00482  -0.0385   0.7971   0.9853
1.250   0.3533   0.01012   0.00472  -0.0421   0.7733   0.9948
1.500   0.3914   0.01010   0.00457  -0.0442   0.7496   1.0000
1.750   0.4143   0.01009   0.00446  -0.0433   0.7245   1.0000
2.000   0.4375   0.01012   0.00437  -0.0423   0.7012   1.0000
2.250   0.4606   0.01018   0.00434  -0.0414   0.6769   1.0000
2.500   0.4835   0.01027   0.00432  -0.0405   0.6541   1.0000
2.750   0.5064   0.01038   0.00434  -0.0395   0.6308   1.0000
3.000   0.5290   0.01052   0.00438  -0.0384   0.6071   1.0000
3.250   0.5515   0.01067   0.00444  -0.0373   0.5830   1.0000
3.500   0.5739   0.01084   0.00452  -0.0362   0.5588   1.0000
3.750   0.5962   0.01104   0.00462  -0.0350   0.5361   1.0000
4.000   0.6185   0.01123   0.00476  -0.0339   0.5126   1.0000
4.250   0.6404   0.01147   0.00489  -0.0327   0.4894   1.0000
4.500   0.6621   0.01169   0.00506  -0.0314   0.4621   1.0000
4.750   0.6831   0.01195   0.00521  -0.0301   0.4312   1.0000
5.000   0.7039   0.01225   0.00539  -0.0287   0.3987   1.0000
5.250   0.7246   0.01258   0.00560  -0.0274   0.3669   1.0000
5.500   0.7452   0.01294   0.00586  -0.0260   0.3349   1.0000
5.750   0.7654   0.01337   0.00615  -0.0246   0.3010   1.0000
6.000   0.7850   0.01387   0.00648  -0.0232   0.2662   1.0000
6.250   0.8047   0.01443   0.00689  -0.0219   0.2313   1.0000
6.500   0.8241   0.01504   0.00735  -0.0205   0.1973   1.0000
6.750   0.8430   0.01576   0.00789  -0.0191   0.1655   1.0000
7.000   0.8611   0.01658   0.00855  -0.0176   0.1375   1.0000
7.250   0.8782   0.01751   0.00931  -0.0160   0.1155   1.0000
7.500   0.8950   0.01850   0.01017  -0.0143   0.1005   1.0000
7.750   0.9147   0.01924   0.01093  -0.0129   0.0910   1.0000
8.000   0.9322   0.02024   0.01190  -0.0114   0.0850   1.0000
8.250   0.9519   0.02104   0.01274  -0.0101   0.0802   1.0000
8.500   0.9696   0.02216   0.01377  -0.0087   0.0763   1.0000
8.750   0.9897   0.02311   0.01480  -0.0075   0.0733   1.0000
9.000   1.0101   0.02396   0.01573  -0.0064   0.0704   1.0000
9.250   1.0304   0.02492   0.01672  -0.0054   0.0681   1.0000
9.500   1.0508   0.02609   0.01786  -0.0045   0.0659   1.0000
9.750   1.0720   0.02771   0.01952  -0.0038   0.0637   1.0000
10.000   1.0916   0.02868   0.02066  -0.0027   0.0620   1.0000
10.250   1.1112   0.02986   0.02198  -0.0016   0.0603   1.0000
10.500   1.1299   0.03102   0.02325  -0.0005   0.0584   1.0000
10.750   1.1485   0.03219   0.02445   0.0004   0.0566   1.0000
11.000   1.1695   0.03467   0.02694   0.0006   0.0547   1.0000
11.250   1.1823   0.03617   0.02870   0.0024   0.0537   1.0000
11.500   1.1932   0.03763   0.03044   0.0043   0.0524   1.0000
11.750   1.2031   0.03923   0.03227   0.0062   0.0509   1.0000
12.000   1.2129   0.04081   0.03401   0.0080   0.0496   1.0000
12.250   1.2203   0.04240   0.03573   0.0100   0.0484   1.0000
12.500   1.2289   0.04406   0.03743   0.0117   0.0473   1.0000
12.750   1.2360   0.04787   0.04135   0.0126   0.0460   1.0000
13.000   1.2237   0.04994   0.04370   0.0161   0.0456   1.0000
13.250   1.2098   0.05241   0.04647   0.0188   0.0451   1.0000
13.500   1.1939   0.05557   0.04991   0.0206   0.0447   1.0000
13.750   1.1756   0.05939   0.05401   0.0214   0.0443   1.0000
14.000   1.1544   0.06401   0.05889   0.0211   0.0441   1.0000
14.250   1.1301   0.06953   0.06467   0.0196   0.0441   1.0000
14.500   1.1021   0.07617   0.07155   0.0167   0.0441   1.0000
14.750   1.0699   0.08419   0.07981   0.0122   0.0444   1.0000
15.000   1.0334   0.09389   0.08971   0.0062   0.0448   1.0000
15.250   0.9931   0.10542   0.10140  -0.0010   0.0454   1.0000

XFOIL         Version 6.96

Calculated polar for: NACA 1412

1 1 Reynolds number fixed          Mach number fixed

xtrf =   1.000 (top)        1.000 (bottom)
Mach =   0.000     Re =     0.500 e 6     Ncrit =   9.000

alpha    CL        CD       CDp       CM     Top_Xtr  Bot_Xtr
------ -------- --------- --------- -------- -------- --------
-16.750  -0.9855   0.10450   0.10157  -0.0138   1.0000   0.0216
-16.500  -1.0313   0.09142   0.08829  -0.0218   1.0000   0.0214
-16.250  -1.0647   0.08132   0.07800  -0.0282   1.0000   0.0214
-16.000  -1.0908   0.07287   0.06937  -0.0336   1.0000   0.0214
-15.750  -1.1114   0.06553   0.06185  -0.0384   1.0000   0.0215
-15.500  -1.1271   0.05922   0.05535  -0.0426   1.0000   0.0217
-15.250  -1.1388   0.05381   0.04974  -0.0462   1.0000   0.0219
-15.000  -1.1468   0.04926   0.04500  -0.0490   1.0000   0.0221
-14.750  -1.1578   0.04474   0.04030  -0.0511   1.0000   0.0224
-14.500  -1.1641   0.04117   0.03662  -0.0521   1.0000   0.0228
-14.250  -1.1617   0.03889   0.03428  -0.0525   1.0000   0.0232
-14.000  -1.1569   0.03707   0.03241  -0.0525   1.0000   0.0237
-13.750  -1.1515   0.03548   0.03073  -0.0520   1.0000   0.0242
-13.500  -1.1465   0.03400   0.02916  -0.0511   1.0000   0.0248
-13.250  -1.1415   0.03264   0.02766  -0.0497   1.0000   0.0254
-13.000  -1.1361   0.03141   0.02629  -0.0478   1.0000   0.0260
-12.750  -1.1293   0.03044   0.02517  -0.0455   1.0000   0.0266
-12.500  -1.1237   0.02866   0.02323  -0.0434   1.0000   0.0273
-12.250  -1.1121   0.02739   0.02193  -0.0419   1.0000   0.0281
-12.000  -1.0964   0.02667   0.02117  -0.0407   1.0000   0.0289
-11.750  -1.0798   0.02600   0.02044  -0.0394   1.0000   0.0298
-11.500  -1.0628   0.02530   0.01964  -0.0381   1.0000   0.0308
-11.250  -1.0450   0.02467   0.01889  -0.0369   1.0000   0.0317
-11.000  -1.0289   0.02368   0.01777  -0.0354   1.0000   0.0325
-10.750  -1.0146   0.02233   0.01638  -0.0338   1.0000   0.0337
-10.500  -0.9965   0.02172   0.01576  -0.0324   1.0000   0.0347
-10.250  -0.9780   0.02119   0.01519  -0.0310   1.0000   0.0358
-10.000  -0.9596   0.02065   0.01457  -0.0295   1.0000   0.0369
-9.750  -0.9407   0.02014   0.01398  -0.0281   1.0000   0.0378
-9.500  -0.9211   0.01978   0.01353  -0.0266   1.0000   0.0385
-9.250  -0.9080   0.01839   0.01211  -0.0245   1.0000   0.0400
-9.000  -0.8901   0.01783   0.01154  -0.0228   1.0000   0.0412
-8.750  -0.8717   0.01735   0.01103  -0.0212   1.0000   0.0423
-8.500  -0.8529   0.01690   0.01054  -0.0196   1.0000   0.0435
-8.250  -0.8339   0.01649   0.01007  -0.0181   1.0000   0.0447
-8.000  -0.8145   0.01612   0.00964  -0.0166   1.0000   0.0455
-7.750  -0.7975   0.01538   0.00886  -0.0147   1.0000   0.0468
-7.500  -0.7796   0.01479   0.00827  -0.0131   1.0000   0.0485
-7.250  -0.7599   0.01441   0.00787  -0.0117   1.0000   0.0499
-7.000  -0.7398   0.01405   0.00748  -0.0104   1.0000   0.0514
-6.750  -0.7095   0.01369   0.00709  -0.0111   0.9987   0.0533
-6.500  -0.6739   0.01316   0.00652  -0.0130   0.9963   0.0560
-6.250  -0.6374   0.01270   0.00608  -0.0150   0.9942   0.0598
-6.000  -0.6018   0.01237   0.00572  -0.0167   0.9913   0.0637
-5.750  -0.5667   0.01187   0.00528  -0.0185   0.9881   0.0723
-5.500  -0.5301   0.01144   0.00492  -0.0205   0.9856   0.0863
-5.250  -0.4925   0.01100   0.00459  -0.0228   0.9836   0.1059
-5.000  -0.4594   0.01064   0.00432  -0.0240   0.9791   0.1255
-4.750  -0.4231   0.01029   0.00407  -0.0259   0.9758   0.1476
-4.500  -0.3850   0.00994   0.00382  -0.0282   0.9735   0.1733
-4.250  -0.3475   0.00958   0.00360  -0.0304   0.9711   0.2027
-4.000  -0.3168   0.00926   0.00340  -0.0310   0.9646   0.2321
-3.750  -0.2824   0.00893   0.00320  -0.0324   0.9603   0.2642
-3.500  -0.2528   0.00865   0.00303  -0.0327   0.9533   0.2945
-3.250  -0.2226   0.00836   0.00286  -0.0331   0.9463   0.3278
-3.000  -0.1953   0.00806   0.00271  -0.0329   0.9374   0.3691
-2.750  -0.1675   0.00775   0.00256  -0.0327   0.9289   0.4145
-2.500  -0.1420   0.00749   0.00245  -0.0321   0.9173   0.4538
-2.250  -0.1157   0.00726   0.00233  -0.0315   0.9062   0.4940
-2.000  -0.0893   0.00706   0.00223  -0.0310   0.8946   0.5325
-1.750  -0.0634   0.00687   0.00214  -0.0303   0.8812   0.5701
-1.500  -0.0375   0.00671   0.00208  -0.0296   0.8667   0.6100
-1.250  -0.0117   0.00655   0.00202  -0.0289   0.8515   0.6501
-1.000   0.0140   0.00642   0.00198  -0.0281   0.8353   0.6899
-0.750   0.0398   0.00633   0.00195  -0.0274   0.8182   0.7261
-0.500   0.0656   0.00627   0.00193  -0.0266   0.8003   0.7595
-0.250   0.0913   0.00622   0.00193  -0.0258   0.7821   0.7913
0.000   0.1171   0.00620   0.00195  -0.0250   0.7632   0.8214
0.250   0.1428   0.00621   0.00198  -0.0241   0.7437   0.8500
0.500   0.1683   0.00626   0.00201  -0.0232   0.7238   0.8769
0.750   0.1941   0.00634   0.00207  -0.0223   0.7036   0.8996
1.000   0.2205   0.00645   0.00213  -0.0216   0.6828   0.9197
1.250   0.2482   0.00658   0.00219  -0.0212   0.6602   0.9367
1.500   0.2778   0.00673   0.00226  -0.0212   0.6376   0.9505
1.750   0.3094   0.00689   0.00234  -0.0218   0.6160   0.9619
2.000   0.3422   0.00706   0.00243  -0.0226   0.5940   0.9719
2.500   0.4181   0.00745   0.00261  -0.0268   0.5450   0.9835
2.750   0.4590   0.00765   0.00270  -0.0296   0.5186   0.9874
3.000   0.4981   0.00782   0.00279  -0.0320   0.4952   0.9925
3.250   0.5378   0.00802   0.00288  -0.0347   0.4683   0.9962
3.500   0.5774   0.00823   0.00298  -0.0373   0.4390   0.9999
3.750   0.6007   0.00841   0.00305  -0.0365   0.4103   1.0000
4.000   0.6232   0.00862   0.00313  -0.0356   0.3801   1.0000
4.250   0.6456   0.00885   0.00324  -0.0346   0.3517   1.0000
4.500   0.6678   0.00909   0.00338  -0.0336   0.3247   1.0000
5.000   0.7114   0.00968   0.00372  -0.0314   0.2680   1.0000
5.250   0.7330   0.01001   0.00393  -0.0303   0.2402   1.0000
5.500   0.7544   0.01037   0.00416  -0.0291   0.2126   1.0000
5.750   0.7755   0.01076   0.00442  -0.0279   0.1852   1.0000
6.000   0.7966   0.01118   0.00471  -0.0267   0.1594   1.0000
6.250   0.8179   0.01159   0.00501  -0.0256   0.1366   1.0000
6.500   0.8387   0.01206   0.00535  -0.0244   0.1148   1.0000
6.750   0.8599   0.01252   0.00572  -0.0232   0.0952   1.0000
7.000   0.8805   0.01307   0.00616  -0.0220   0.0778   1.0000
7.250   0.9015   0.01362   0.00664  -0.0208   0.0664   1.0000
7.500   0.9234   0.01408   0.00710  -0.0198   0.0603   1.0000
7.750   0.9443   0.01466   0.00764  -0.0186   0.0555   1.0000
8.000   0.9663   0.01513   0.00815  -0.0176   0.0530   1.0000
8.250   0.9885   0.01559   0.00865  -0.0167   0.0509   1.0000
8.500   1.0100   0.01610   0.00918  -0.0157   0.0490   1.0000
8.750   1.0294   0.01680   0.00988  -0.0144   0.0470   1.0000
9.000   1.0482   0.01754   0.01067  -0.0131   0.0455   1.0000
9.250   1.0694   0.01805   0.01125  -0.0121   0.0445   1.0000
9.500   1.0899   0.01861   0.01187  -0.0110   0.0433   1.0000
9.750   1.1099   0.01919   0.01248  -0.0099   0.0421   1.0000
10.000   1.1290   0.01982   0.01314  -0.0087   0.0409   1.0000
10.250   1.1455   0.02066   0.01401  -0.0072   0.0397   1.0000
10.500   1.1568   0.02202   0.01541  -0.0050   0.0384   1.0000
10.750   1.1759   0.02255   0.01602  -0.0038   0.0378   1.0000
11.000   1.1924   0.02320   0.01675  -0.0023   0.0369   1.0000
11.250   1.2070   0.02390   0.01753  -0.0005   0.0360   1.0000
11.500   1.2209   0.02464   0.01833   0.0012   0.0350   1.0000
11.750   1.2340   0.02545   0.01918   0.0030   0.0341   1.0000
12.000   1.2451   0.02646   0.02022   0.0047   0.0333   1.0000
12.250   1.2511   0.02821   0.02202   0.0069   0.0323   1.0000
12.500   1.2617   0.02935   0.02327   0.0085   0.0317   1.0000
12.750   1.2731   0.03033   0.02437   0.0099   0.0310   1.0000
13.000   1.2832   0.03147   0.02561   0.0112   0.0302   1.0000
13.250   1.2923   0.03274   0.02697   0.0124   0.0294   1.0000
13.500   1.3006   0.03413   0.02844   0.0134   0.0287   1.0000
13.750   1.3080   0.03566   0.03002   0.0143   0.0281   1.0000
14.000   1.3134   0.03747   0.03187   0.0151   0.0275   1.0000
14.250   1.3111   0.04038   0.03486   0.0164   0.0266   1.0000
14.500   1.3158   0.04231   0.03695   0.0166   0.0262   1.0000
14.750   1.3191   0.04453   0.03932   0.0165   0.0257   1.0000
15.000   1.3212   0.04702   0.04194   0.0163   0.0251   1.0000
15.250   1.3220   0.04976   0.04481   0.0159   0.0246   1.0000
15.500   1.3221   0.05268   0.04784   0.0152   0.0240   1.0000
15.750   1.3215   0.05578   0.05103   0.0143   0.0236   1.0000
16.000   1.3204   0.05904   0.05437   0.0133   0.0232   1.0000
16.250   1.3180   0.06251   0.05791   0.0121   0.0228   1.0000
16.500   1.3132   0.06636   0.06183   0.0108   0.0225   1.0000
16.750   1.3014   0.07115   0.06672   0.0096   0.0220   1.0000
17.000   1.2897   0.07638   0.07212   0.0073   0.0218   1.0000
17.250   1.2792   0.08177   0.07768   0.0045   0.0216   1.0000
17.500   1.2670   0.08758   0.08366   0.0015   0.0214   1.0000
17.750   1.2529   0.09385   0.09009  -0.0018   0.0211   1.0000
18.000   1.2371   0.10059   0.09699  -0.0055   0.0209   1.0000
18.250   1.2196   0.10784   0.10440  -0.0095   0.0207   1.0000
18.500   1.2001   0.11567   0.11239  -0.0139   0.0205   1.0000
18.750   1.1776   0.12436   0.12125  -0.0189   0.0204   1.0000

XFOIL         Version 6.96

Calculated polar for: NACA 1412

1 1 Reynolds number fixed          Mach number fixed

xtrf =   1.000 (top)        1.000 (bottom)
Mach =   0.000     Re =     1.000 e 6     Ncrit =   9.000

alpha    CL        CD       CDp       CM     Top_Xtr  Bot_Xtr
------ -------- --------- --------- -------- -------- --------
-18.250  -1.2023   0.09262   0.08974  -0.0182   1.0000   0.0138
-18.000  -1.2455   0.08177   0.07873  -0.0241   1.0000   0.0137
-17.750  -1.2853   0.07157   0.06836  -0.0298   1.0000   0.0136
-17.500  -1.3179   0.06252   0.05914  -0.0350   1.0000   0.0136
-17.250  -1.3410   0.05504   0.05150  -0.0396   1.0000   0.0136
-17.000  -1.3561   0.04897   0.04528  -0.0434   1.0000   0.0137
-16.750  -1.3653   0.04406   0.04022  -0.0463   1.0000   0.0139
-16.500  -1.3700   0.04007   0.03611  -0.0485   1.0000   0.0141
-16.250  -1.3714   0.03685   0.03275  -0.0498   1.0000   0.0143
-16.000  -1.3694   0.03428   0.03007  -0.0505   1.0000   0.0145
-15.750  -1.3649   0.03221   0.02788  -0.0506   1.0000   0.0147
-15.500  -1.3695   0.02957   0.02513  -0.0501   1.0000   0.0152
-15.250  -1.3672   0.02779   0.02328  -0.0489   1.0000   0.0156
-15.000  -1.3589   0.02660   0.02203  -0.0477   1.0000   0.0161
-14.750  -1.3480   0.02566   0.02104  -0.0463   1.0000   0.0166
-14.500  -1.3359   0.02486   0.02018  -0.0448   1.0000   0.0171
-14.250  -1.3232   0.02415   0.01940  -0.0431   1.0000   0.0176
-14.000  -1.3084   0.02353   0.01871  -0.0416   1.0000   0.0180
-13.750  -1.2959   0.02258   0.01767  -0.0400   1.0000   0.0186
-13.500  -1.2806   0.02176   0.01683  -0.0386   1.0000   0.0194
-13.250  -1.2611   0.02124   0.01629  -0.0377   1.0000   0.0200
-13.000  -1.2406   0.02079   0.01580  -0.0369   1.0000   0.0207
-12.750  -1.2198   0.02034   0.01529  -0.0360   1.0000   0.0214
-12.500  -1.1980   0.01998   0.01487  -0.0353   1.0000   0.0220
-12.250  -1.1800   0.01928   0.01411  -0.0340   1.0000   0.0227
-12.000  -1.1616   0.01864   0.01345  -0.0328   1.0000   0.0236
-11.750  -1.1402   0.01827   0.01307  -0.0319   1.0000   0.0243
-11.500  -1.1190   0.01792   0.01269  -0.0310   1.0000   0.0251
-11.250  -1.0982   0.01757   0.01229  -0.0298   1.0000   0.0258
-11.000  -1.0771   0.01726   0.01194  -0.0287   1.0000   0.0264
-10.750  -1.0553   0.01705   0.01168  -0.0277   1.0000   0.0268
-10.500  -1.0421   0.01609   0.01067  -0.0254   1.0000   0.0281
-10.250  -1.0232   0.01568   0.01024  -0.0239   1.0000   0.0289
-10.000  -1.0036   0.01535   0.00990  -0.0225   1.0000   0.0297
-9.750  -0.9841   0.01502   0.00954  -0.0210   1.0000   0.0304
-9.500  -0.9645   0.01471   0.00920  -0.0195   1.0000   0.0312
-9.250  -0.9445   0.01446   0.00891  -0.0180   1.0000   0.0318
-9.000  -0.9240   0.01426   0.00868  -0.0167   1.0000   0.0322
-8.750  -0.9056   0.01350   0.00786  -0.0152   0.9998   0.0335
-8.500  -0.8733   0.01303   0.00739  -0.0164   0.9985   0.0348
-8.250  -0.8400   0.01269   0.00703  -0.0178   0.9970   0.0359
-8.000  -0.8062   0.01236   0.00668  -0.0193   0.9956   0.0370
-7.750  -0.7716   0.01208   0.00637  -0.0208   0.9944   0.0380
-7.500  -0.7377   0.01177   0.00603  -0.0222   0.9929   0.0387
-7.250  -0.7062   0.01124   0.00547  -0.0232   0.9904   0.0408
-7.000  -0.6725   0.01089   0.00513  -0.0246   0.9882   0.0424
-6.750  -0.6378   0.01060   0.00482  -0.0261   0.9865   0.0441
-6.500  -0.6023   0.01035   0.00455  -0.0278   0.9851   0.0456
-6.250  -0.5670   0.00995   0.00417  -0.0296   0.9839   0.0494
-6.000  -0.5355   0.00966   0.00390  -0.0304   0.9804   0.0534
-5.750  -0.5041   0.00932   0.00361  -0.0311   0.9765   0.0618
-5.500  -0.4721   0.00900   0.00336  -0.0321   0.9731   0.0748
-5.250  -0.4436   0.00871   0.00314  -0.0322   0.9674   0.0889
-5.000  -0.4154   0.00844   0.00293  -0.0322   0.9612   0.1027
-4.750  -0.3880   0.00820   0.00275  -0.0321   0.9543   0.1172
-4.500  -0.3613   0.00796   0.00257  -0.0317   0.9464   0.1337
-4.250  -0.3349   0.00773   0.00241  -0.0313   0.9377   0.1517
-4.000  -0.3082   0.00753   0.00225  -0.0310   0.9289   0.1711
-3.750  -0.2817   0.00733   0.00212  -0.0306   0.9182   0.1918
-3.500  -0.2550   0.00712   0.00198  -0.0302   0.9079   0.2156
-3.250  -0.2284   0.00694   0.00186  -0.0299   0.8962   0.2414
-3.000  -0.2015   0.00677   0.00175  -0.0296   0.8837   0.2682
-2.750  -0.1746   0.00659   0.00165  -0.0293   0.8704   0.2966
-2.500  -0.1478   0.00642   0.00155  -0.0290   0.8566   0.3293
-2.250  -0.1210   0.00626   0.00147  -0.0287   0.8416   0.3645
-1.750  -0.0673   0.00597   0.00132  -0.0281   0.8084   0.4383
-1.500  -0.0405   0.00586   0.00127  -0.0278   0.7900   0.4764
-1.250  -0.0135   0.00577   0.00123  -0.0275   0.7711   0.5098
-1.000   0.0135   0.00570   0.00119  -0.0272   0.7525   0.5451
-0.750   0.0402   0.00561   0.00117  -0.0269   0.7336   0.5848
-0.500   0.0671   0.00553   0.00116  -0.0266   0.7146   0.6258
-0.250   0.0940   0.00548   0.00116  -0.0263   0.6949   0.6616
0.000   0.1209   0.00544   0.00117  -0.0259   0.6747   0.6948
0.250   0.1477   0.00543   0.00118  -0.0256   0.6543   0.7265
0.500   0.1744   0.00543   0.00120  -0.0252   0.6324   0.7572
0.750   0.2009   0.00544   0.00124  -0.0247   0.6098   0.7879
1.000   0.2274   0.00546   0.00128  -0.0243   0.5890   0.8180
1.250   0.2538   0.00549   0.00134  -0.0238   0.5700   0.8466
1.500   0.2801   0.00553   0.00140  -0.0232   0.5507   0.8726
1.750   0.3065   0.00560   0.00147  -0.0227   0.5316   0.8956
2.000   0.3324   0.00571   0.00154  -0.0221   0.5093   0.9159
2.250   0.3585   0.00584   0.00163  -0.0215   0.4866   0.9336
2.500   0.3856   0.00597   0.00171  -0.0211   0.4683   0.9484
2.750   0.4135   0.00612   0.00180  -0.0210   0.4466   0.9607
3.000   0.4420   0.00631   0.00190  -0.0210   0.4223   0.9715
3.250   0.4752   0.00651   0.00201  -0.0221   0.3970   0.9776
3.500   0.5073   0.00675   0.00213  -0.0230   0.3671   0.9841
3.750   0.5443   0.00703   0.00226  -0.0251   0.3341   0.9870
4.000   0.5800   0.00731   0.00241  -0.0269   0.3022   0.9902
4.250   0.6140   0.00760   0.00257  -0.0284   0.2729   0.9937
4.500   0.6505   0.00791   0.00274  -0.0304   0.2426   0.9956
4.750   0.6861   0.00824   0.00292  -0.0323   0.2119   0.9978
5.000   0.7210   0.00860   0.00313  -0.0340   0.1808   0.9998
5.250   0.7441   0.00892   0.00333  -0.0332   0.1572   1.0000
5.500   0.7657   0.00919   0.00351  -0.0320   0.1384   1.0000
5.750   0.7872   0.00949   0.00372  -0.0308   0.1201   1.0000
6.000   0.8085   0.00981   0.00395  -0.0296   0.1030   1.0000
6.250   0.8299   0.01015   0.00420  -0.0284   0.0877   1.0000
6.500   0.8515   0.01048   0.00446  -0.0272   0.0740   1.0000
6.750   0.8730   0.01086   0.00475  -0.0260   0.0603   1.0000
7.000   0.8947   0.01123   0.00507  -0.0249   0.0515   1.0000
7.250   0.9164   0.01163   0.00542  -0.0237   0.0458   1.0000
7.500   0.9398   0.01190   0.00570  -0.0229   0.0438   1.0000
7.750   0.9630   0.01222   0.00603  -0.0221   0.0419   1.0000
8.000   0.9858   0.01262   0.00643  -0.0212   0.0398   1.0000
8.250   1.0084   0.01305   0.00689  -0.0203   0.0383   1.0000
8.500   1.0324   0.01335   0.00721  -0.0196   0.0375   1.0000
8.750   1.0560   0.01369   0.00758  -0.0189   0.0366   1.0000
9.000   1.0794   0.01405   0.00797  -0.0182   0.0357   1.0000
9.250   1.1024   0.01445   0.00838  -0.0175   0.0346   1.0000
9.500   1.1243   0.01494   0.00889  -0.0166   0.0335   1.0000
9.750   1.1429   0.01571   0.00971  -0.0152   0.0321   1.0000
10.000   1.1659   0.01606   0.01011  -0.0145   0.0317   1.0000
10.250   1.1887   0.01643   0.01051  -0.0138   0.0311   1.0000
10.500   1.2108   0.01684   0.01096  -0.0130   0.0304   1.0000
10.750   1.2322   0.01729   0.01144  -0.0121   0.0297   1.0000
11.000   1.2531   0.01775   0.01194  -0.0112   0.0289   1.0000
11.250   1.2728   0.01829   0.01249  -0.0101   0.0281   1.0000
11.500   1.2879   0.01914   0.01337  -0.0084   0.0271   1.0000
11.750   1.3022   0.01998   0.01429  -0.0066   0.0265   1.0000
12.000   1.3212   0.02038   0.01474  -0.0054   0.0261   1.0000
12.250   1.3385   0.02084   0.01526  -0.0040   0.0255   1.0000
12.500   1.3549   0.02136   0.01582  -0.0025   0.0249   1.0000
12.750   1.3709   0.02190   0.01640  -0.0010   0.0242   1.0000
13.000   1.3862   0.02251   0.01704   0.0004   0.0236   1.0000
13.250   1.3990   0.02330   0.01786   0.0021   0.0230   1.0000
13.500   1.4043   0.02461   0.01924   0.0043   0.0223   1.0000
13.750   1.4127   0.02579   0.02050   0.0060   0.0218   1.0000
14.000   1.4279   0.02653   0.02131   0.0070   0.0214   1.0000
14.250   1.4416   0.02741   0.02225   0.0080   0.0209   1.0000
14.500   1.4546   0.02837   0.02327   0.0089   0.0203   1.0000
14.750   1.4671   0.02941   0.02436   0.0097   0.0197   1.0000
15.000   1.4789   0.03055   0.02554   0.0104   0.0192   1.0000
15.250   1.4863   0.03213   0.02717   0.0112   0.0186   1.0000
15.500   1.4840   0.03473   0.02986   0.0119   0.0180   1.0000
15.750   1.4918   0.03648   0.03169   0.0122   0.0177   1.0000
16.000   1.4994   0.03831   0.03361   0.0123   0.0173   1.0000
16.250   1.5050   0.04044   0.03582   0.0123   0.0169   1.0000
16.500   1.5091   0.04282   0.03828   0.0120   0.0165   1.0000
16.750   1.5122   0.04536   0.04091   0.0116   0.0161   1.0000
17.000   1.5124   0.04836   0.04399   0.0110   0.0157   1.0000
17.250   1.5099   0.05182   0.04752   0.0100   0.0154   1.0000
17.500   1.5023   0.05602   0.05182   0.0086   0.0151   1.0000
17.750   1.4890   0.06117   0.05708   0.0067   0.0148   1.0000
18.000   1.4702   0.06728   0.06332   0.0043   0.0145   1.0000
18.250   1.4560   0.07286   0.06903   0.0020   0.0144   1.0000
18.500   1.4429   0.07843   0.07472  -0.0004   0.0143   1.0000
18.750   1.4274   0.08443   0.08085  -0.0030   0.0142   1.0000
19.000   1.4094   0.09097   0.08751  -0.0059   0.0141   1.0000
19.250   1.3896   0.09796   0.09463  -0.0092   0.0140   1.0000
