XFOIL         Version 6.96

Calculated polar for: NACA 6412

1 1 Reynolds number fixed          Mach number fixed

xtrf =   1.000 (top)        1.000 (bottom)
Mach =   0.000     Re =     0.050 e 6     Ncrit =   9.000

alpha    CL        CD       CDp       CM     Top_Xtr  Bot_Xtr
------ -------- --------- --------- -------- -------- --------
-9.000  -0.3304   0.13030   0.12383  -0.0292   1.0001   0.1748
-8.750  -0.3583   0.13182   0.12550  -0.0274   1.0001   0.1754
-8.500  -0.3148   0.12222   0.11582  -0.0254   1.0001   0.1826
-8.250  -0.3221   0.12090   0.11458  -0.0236   1.0001   0.1873
-8.000  -0.3420   0.12106   0.11486  -0.0218   1.0001   0.1909
-7.750  -0.3716   0.12225   0.11619  -0.0194   1.0001   0.1923
-7.500  -0.4036   0.12347   0.11758  -0.0172   1.0001   0.1930
-7.250  -0.3607   0.11491   0.10895  -0.0157   1.0001   0.1997
-7.000  -0.3705   0.11359   0.10771  -0.0133   1.0001   0.2039
-6.750  -0.3921   0.11331   0.10754  -0.0107   1.0001   0.2075
-6.500  -0.4215   0.11416   0.10853  -0.0116   1.0001   0.2104
-6.250  -0.4238   0.11077   0.10522  -0.0102   1.0001   0.2128
-6.000  -0.4156   0.10733   0.10179  -0.0065   1.0001   0.2177
-5.750  -0.4218   0.10560   0.10013  -0.0058   1.0001   0.2238
-5.500  -0.4384   0.10518   0.09978  -0.0126   1.0001   0.2297
-5.250  -0.4318   0.10107   0.09572  -0.0059   1.0001   0.2341
-5.000  -0.4327   0.09919   0.09386  -0.0060   1.0001   0.2435
-4.750  -0.4335   0.09652   0.09123  -0.0079   1.0001   0.2501
-4.500  -0.4305   0.09419   0.08894  -0.0058   1.0001   0.2592
-4.250  -0.4270   0.09151   0.08628  -0.0084   1.0001   0.2687
-4.000  -0.4173   0.08945   0.08418  -0.0133   1.0001   0.2837
-3.750  -0.3873   0.08592   0.08059  -0.0182   0.9930   0.3015
-3.500  -0.3563   0.08220   0.07685  -0.0206   0.9829   0.3215
-3.250  -0.3242   0.07938   0.07395  -0.0259   0.9723   0.3544
-3.000  -0.3042   0.07643   0.07101  -0.0252   0.9622   0.3773
-2.750  -0.2800   0.07380   0.06835  -0.0265   0.9523   0.4126
-2.500  -0.2622   0.07155   0.06613  -0.0247   0.9436   0.4643
-2.250  -0.0529   0.05589   0.04808  -0.0876   0.9317   0.2070
-2.000  -0.0005   0.05297   0.04454  -0.0944   0.9228   0.2079
-1.750   0.0439   0.05090   0.04195  -0.0990   0.9135   0.2138
-1.500   0.0783   0.04999   0.04076  -0.1014   0.9041   0.2246
-1.250   0.1235   0.04895   0.03939  -0.1053   0.8955   0.2381
-1.000   0.1507   0.04848   0.03863  -0.1063   0.8858   0.2517
-0.750   0.1967   0.04802   0.03794  -0.1099   0.8781   0.2739
-0.500   0.2151   0.04806   0.03785  -0.1095   0.8685   0.2907
-0.250   0.2630   0.04779   0.03739  -0.1132   0.8611   0.3230
0.000   0.2776   0.04812   0.03764  -0.1121   0.8515   0.3451
0.250   0.3266   0.04795   0.03740  -0.1158   0.8445   0.3941
0.500   0.3387   0.04843   0.03797  -0.1145   0.8354   0.4291
0.750   0.3841   0.04803   0.03809  -0.1175   0.8286   0.5310
1.000   0.3871   0.04738   0.03867  -0.1139   0.8205   0.9999
1.250   0.4254   0.04852   0.03904  -0.1163   0.8130   0.9999
1.500   0.4386   0.04991   0.04017  -0.1154   0.8050   0.9999
1.750   0.4645   0.05112   0.04112  -0.1160   0.7976   0.9999
2.000   0.4843   0.05252   0.04233  -0.1159   0.7905   0.9999
2.250   0.4988   0.05398   0.04366  -0.1153   0.7833   0.9999
2.500   0.5342   0.05516   0.04465  -0.1170   0.7765   0.9999
2.750   0.5333   0.05703   0.04647  -0.1147   0.7697   0.9999
3.000   0.5632   0.05831   0.04763  -0.1158   0.7628   0.9999
3.250   0.5723   0.06014   0.04939  -0.1148   0.7564   0.9999
3.500   0.5833   0.06193   0.05113  -0.1140   0.7502   0.9999
3.750   0.6202   0.06320   0.05230  -0.1157   0.7431   0.9999
4.000   0.6139   0.06554   0.05465  -0.1134   0.7382   0.9999
4.250   0.6273   0.06743   0.05651  -0.1130   0.7325   0.9999
4.500   0.6555   0.06903   0.05806  -0.1139   0.7252   0.9999
4.750   0.6527   0.07151   0.06055  -0.1123   0.7217   0.9999
5.000   0.6602   0.07377   0.06282  -0.1116   0.7175   0.9999
5.250   0.6929   0.07535   0.06437  -0.1128   0.7086   0.9999
5.500   0.6905   0.07809   0.06714  -0.1115   0.7067   0.9999
5.750   0.6933   0.08088   0.06996  -0.1109   0.7062   0.9999
6.000   0.7021   0.08387   0.07298  -0.1112   0.7080   0.9999
6.250   0.7197   0.08705   0.07620  -0.1123   0.7101   0.9999
6.500   0.6387   0.09319   0.08249  -0.1086   0.7826   0.9999
6.750   0.6586   0.09609   0.08541  -0.1095   0.7752   0.9999
7.000   0.6765   0.09828   0.08764  -0.1099   0.7629   0.9999
7.250   0.6788   0.10023   0.08962  -0.1086   0.7534   0.9999
7.500   0.7178   0.10418   0.09361  -0.1117   0.7437   0.9999
7.750   0.7125   0.10520   0.09468  -0.1093   0.7310   0.9999
8.000   0.7210   0.10767   0.09719  -0.1089   0.7213   0.9999
8.250   0.7611   0.11176   0.10136  -0.1119   0.7102   0.9999
8.500   0.7524   0.11275   0.10240  -0.1094   0.6972   0.9999
8.750   0.7588   0.11523   0.10494  -0.1088   0.6864   0.9999
9.000   0.7932   0.11926   0.10905  -0.1111   0.6760   0.9999
9.250   0.7950   0.12088   0.11076  -0.1098   0.6619   0.9999
9.500   0.7958   0.12308   0.11302  -0.1088   0.6495   0.9999
9.750   0.8108   0.12628   0.11631  -0.1093   0.6392   0.9999
10.000   0.8434   0.13017   0.12030  -0.1109   0.6255   0.9999
10.250   0.8399   0.13173   0.12194  -0.1095   0.6113   0.9999
10.500   0.8408   0.13412   0.12442  -0.1088   0.5981   0.9999

XFOIL         Version 6.96

Calculated polar for: NACA 6412

1 1 Reynolds number fixed          Mach number fixed

xtrf =   1.000 (top)        1.000 (bottom)
Mach =   0.000     Re =     0.100 e 6     Ncrit =   9.000

alpha    CL        CD       CDp       CM     Top_Xtr  Bot_Xtr
------ -------- --------- --------- -------- -------- --------
-8.750  -0.3657   0.12392   0.11950  -0.0276   1.0001   0.0956
-8.500  -0.3935   0.12437   0.12006  -0.0262   1.0001   0.0959
-8.250  -0.4195   0.12441   0.12020  -0.0243   1.0001   0.0960
-8.000  -0.3673   0.11524   0.11096  -0.0217   1.0001   0.0988
-7.750  -0.3473   0.11172   0.10742  -0.0242   0.9963   0.1026
-7.500  -0.3363   0.10865   0.10434  -0.0297   0.9895   0.1073
-7.250  -0.3428   0.10667   0.10238  -0.0508   0.9733   0.1103
-7.000  -0.3193   0.10099   0.09670  -0.0429   0.9727   0.1119
-6.750  -0.2956   0.09735   0.09303  -0.0429   0.9671   0.1149
-6.500  -0.2745   0.09372   0.08938  -0.0477   0.9594   0.1196
-6.250  -0.2591   0.08857   0.08416  -0.0661   0.9449   0.1262
-6.000  -0.2341   0.08517   0.08077  -0.0613   0.9427   0.1294
-5.750  -0.2208   0.08254   0.07814  -0.0622   0.9326   0.1341
-5.500  -0.1927   0.07702   0.07247  -0.0771   0.9225   0.1430
-5.250  -0.1747   0.07417   0.06965  -0.0752   0.9153   0.1457
-5.000  -0.1367   0.06949   0.06468  -0.0893   0.9061   0.1591
-4.750  -0.1209   0.06662   0.06191  -0.0860   0.8991   0.1619
-4.500  -0.0749   0.06220   0.05725  -0.0959   0.8945   0.1775
-4.250  -0.0320   0.04616   0.04005  -0.1114   0.8854   0.1116
-4.000   0.0124   0.04081   0.03396  -0.1169   0.8809   0.1094
-3.750   0.0596   0.03638   0.02884  -0.1219   0.8781   0.1111
-3.500   0.0792   0.03587   0.02850  -0.1209   0.8669   0.1160
-3.250   0.1250   0.03333   0.02534  -0.1243   0.8631   0.1230
-3.000   0.1528   0.03210   0.02391  -0.1247   0.8542   0.1299
-2.750   0.1925   0.03088   0.02234  -0.1265   0.8483   0.1399
-2.500   0.2394   0.02948   0.02085  -0.1297   0.8454   0.1523
-2.250   0.2610   0.02893   0.02013  -0.1286   0.8340   0.1619
-2.000   0.3063   0.02778   0.01881  -0.1312   0.8304   0.1776
-1.750   0.3528   0.02665   0.01766  -0.1340   0.8279   0.1973
-1.500   0.3729   0.02648   0.01742  -0.1325   0.8158   0.2126
-1.250   0.4158   0.02542   0.01645  -0.1346   0.8125   0.2365
-0.750   0.4773   0.02438   0.01548  -0.1349   0.7972   0.2886
-0.500   0.5058   0.02399   0.01516  -0.1348   0.7887   0.3210
-0.250   0.5387   0.02324   0.01457  -0.1352   0.7819   0.3636
0.000   0.5812   0.02202   0.01367  -0.1371   0.7785   0.4425
0.250   0.6154   0.02073   0.01371  -0.1380   0.7684   0.9999
0.500   0.6546   0.02038   0.01303  -0.1393   0.7631   0.9999
0.750   0.6783   0.02066   0.01315  -0.1384   0.7530   0.9999
1.000   0.7136   0.02045   0.01275  -0.1393   0.7469   0.9999
1.250   0.7388   0.02072   0.01290  -0.1387   0.7379   0.9999
1.500   0.7706   0.02067   0.01271  -0.1390   0.7307   0.9999
1.750   0.7990   0.02082   0.01276  -0.1389   0.7231   0.9999
2.000   0.8256   0.02103   0.01289  -0.1386   0.7148   0.9999
2.250   0.8638   0.02079   0.01251  -0.1399   0.7100   0.9999
2.500   0.8791   0.02152   0.01324  -0.1379   0.6992   0.9999
2.750   0.9159   0.02135   0.01295  -0.1391   0.6941   0.9999
3.000   0.9315   0.02212   0.01374  -0.1373   0.6841   0.9999
3.250   0.9656   0.02206   0.01360  -0.1380   0.6785   0.9999
3.500   0.9844   0.02274   0.01429  -0.1366   0.6698   0.9999
3.750   1.0139   0.02290   0.01441  -0.1368   0.6632   0.9999
4.000   1.0411   0.02323   0.01473  -0.1366   0.6567   0.9999
4.250   1.0612   0.02383   0.01537  -0.1354   0.6485   0.9999
4.500   1.0972   0.02376   0.01522  -0.1365   0.6435   0.9999
4.750   1.1094   0.02477   0.01633  -0.1343   0.6343   0.9999
5.000   1.1412   0.02486   0.01640  -0.1347   0.6284   0.9999
5.250   1.1609   0.02556   0.01716  -0.1335   0.6207   0.9999
5.500   1.1851   0.02599   0.01763  -0.1329   0.6135   0.9999
5.750   1.2210   0.02597   0.01758  -0.1339   0.6084   0.9999
6.000   1.2294   0.02715   0.01891  -0.1312   0.5990   0.9999
6.250   1.2657   0.02702   0.01875  -0.1322   0.5933   0.9999
6.500   1.2761   0.02814   0.02003  -0.1298   0.5843   0.9999
6.750   1.3072   0.02824   0.02015  -0.1300   0.5778   0.9999
7.000   1.3248   0.02905   0.02106  -0.1286   0.5699   0.9999
7.250   1.3505   0.02931   0.02139  -0.1281   0.5619   0.9999
7.500   1.3734   0.02977   0.02193  -0.1272   0.5538   0.9999
7.750   1.3974   0.03004   0.02227  -0.1264   0.5450   0.9999
8.000   1.4185   0.03047   0.02281  -0.1252   0.5360   0.9999
8.250   1.4526   0.03004   0.02236  -0.1255   0.5261   0.9999
8.500   1.4655   0.03050   0.02295  -0.1229   0.5140   0.9999
8.750   1.4912   0.03022   0.02269  -0.1219   0.5017   0.9999
9.000   1.5229   0.02963   0.02206  -0.1218   0.4889   0.9999
9.250   1.5396   0.02970   0.02221  -0.1196   0.4759   0.9999
9.500   1.5510   0.03002   0.02266  -0.1167   0.4630   0.9999
9.750   1.5674   0.03010   0.02281  -0.1145   0.4500   0.9999
10.000   1.5843   0.03007   0.02282  -0.1124   0.4364   0.9999
10.250   1.5975   0.03009   0.02288  -0.1096   0.4221   0.9999
10.500   1.6004   0.03041   0.02329  -0.1054   0.4076   0.9999
10.750   1.5968   0.03101   0.02403  -0.1004   0.3930   0.9999
11.000   1.5938   0.03171   0.02481  -0.0958   0.3771   0.9999
11.250   1.5904   0.03256   0.02571  -0.0915   0.3596   0.9999
11.500   1.5830   0.03388   0.02710  -0.0871   0.3399   0.9999
11.750   1.5733   0.03561   0.02886  -0.0830   0.3174   0.9999
12.000   1.5616   0.03775   0.03093  -0.0791   0.2920   0.9999
12.250   1.5460   0.04053   0.03358  -0.0755   0.2642   0.9999
12.500   1.5269   0.04401   0.03690  -0.0722   0.2352   0.9999
12.750   1.5063   0.04801   0.04073  -0.0695   0.2077   0.9999
13.000   1.4863   0.05230   0.04483  -0.0672   0.1842   0.9999
13.250   1.4684   0.05667   0.04902  -0.0654   0.1644   0.9999
13.500   1.4540   0.06082   0.05300  -0.0639   0.1482   0.9999
13.750   1.4437   0.06465   0.05671  -0.0626   0.1343   0.9999
14.000   1.4378   0.06807   0.06005  -0.0615   0.1222   0.9999
14.250   1.4357   0.07102   0.06294  -0.0602   0.1120   0.9999
14.500   1.4371   0.07351   0.06529  -0.0589   0.1031   0.9999
14.750   1.4389   0.07617   0.06797  -0.0580   0.0957   0.9999
15.000   1.4454   0.07823   0.07001  -0.0566   0.0890   0.9999
15.250   1.4517   0.08032   0.07205  -0.0556   0.0832   0.9999
15.500   1.4618   0.08210   0.07389  -0.0542   0.0782   0.9999
15.750   1.4668   0.08457   0.07647  -0.0535   0.0741   0.9999
16.000   1.4892   0.08512   0.07685  -0.0516   0.0696   0.9999
16.250   1.4906   0.08829   0.08031  -0.0511   0.0674   0.9999
16.500   1.4942   0.09122   0.08346  -0.0506   0.0651   0.9999
16.750   1.5004   0.09378   0.08613  -0.0501   0.0629   0.9999
17.000   1.5222   0.09526   0.08752  -0.0487   0.0601   0.9999
17.250   1.5087   0.10002   0.09261  -0.0492   0.0594   0.9999
17.500   1.4948   0.10510   0.09801  -0.0501   0.0587   0.9999
17.750   1.4799   0.11053   0.10375  -0.0514   0.0581   0.9999
18.000   1.4634   0.11645   0.10996  -0.0533   0.0577   0.9999
18.250   1.4440   0.12303   0.11683  -0.0558   0.0575   0.9999
18.500   1.4210   0.13053   0.12462  -0.0593   0.0575   0.9999
18.750   1.3943   0.13916   0.13353  -0.0639   0.0578   0.9999

XFOIL         Version 6.96

Calculated polar for: NACA 6412

1 1 Reynolds number fixed          Mach number fixed

xtrf =   1.000 (top)        1.000 (bottom)
Mach =   0.000     Re =     0.200 e 6     Ncrit =   9.000

alpha    CL        CD       CDp       CM     Top_Xtr  Bot_Xtr
------ -------- --------- --------- -------- -------- --------
-8.000  -0.1668   0.08960   0.08612  -0.0733   0.9635   0.0672
-7.750  -0.1641   0.08548   0.08200  -0.0833   0.9536   0.0713
-7.500  -0.1520   0.07897   0.07549  -0.0933   0.9452   0.0728
-7.250  -0.1249   0.07680   0.07330  -0.0911   0.9442   0.0743
-7.000  -0.0951   0.07338   0.06986  -0.0957   0.9424   0.0770
-6.750  -0.0779   0.06385   0.06012  -0.1193   0.9279   0.0837
-6.500  -0.0530   0.06111   0.05743  -0.1181   0.9269   0.0848
-6.250  -0.0552   0.04110   0.03671  -0.1339   0.9129   0.0632
-6.000  -0.0258   0.03333   0.02830  -0.1398   0.9103   0.0604
-5.750  -0.0160   0.02910   0.02351  -0.1388   0.8995   0.0602
-5.500   0.0168   0.02553   0.01914  -0.1410   0.8965   0.0619
-5.250   0.0521   0.02358   0.01704  -0.1430   0.8944   0.0648
-5.000   0.0715   0.02283   0.01618  -0.1414   0.8850   0.0671
-4.750   0.1053   0.02132   0.01430  -0.1425   0.8812   0.0705
-4.500   0.1409   0.01993   0.01274  -0.1439   0.8784   0.0749
-4.250   0.1636   0.01949   0.01224  -0.1427   0.8697   0.0791
-4.000   0.1960   0.01850   0.01100  -0.1433   0.8650   0.0842
-3.750   0.2309   0.01774   0.01026  -0.1444   0.8615   0.0910
-3.500   0.2541   0.01727   0.00965  -0.1432   0.8519   0.0969
-3.250   0.2864   0.01660   0.00900  -0.1438   0.8467   0.1050
-3.000   0.3136   0.01607   0.00840  -0.1434   0.8390   0.1133
-2.750   0.3429   0.01568   0.00797  -0.1433   0.8316   0.1229
-2.500   0.3724   0.01517   0.00747  -0.1434   0.8246   0.1335
-2.250   0.3994   0.01476   0.00703  -0.1429   0.8155   0.1450
-2.000   0.4287   0.01447   0.00668  -0.1428   0.8078   0.1587
-1.750   0.4557   0.01419   0.00641  -0.1425   0.7984   0.1744
-1.500   0.4834   0.01393   0.00616  -0.1422   0.7896   0.1921
-1.250   0.5114   0.01366   0.00589  -0.1419   0.7802   0.2116
-1.000   0.5373   0.01345   0.00574  -0.1414   0.7697   0.2328
-0.750   0.5667   0.01321   0.00551  -0.1414   0.7611   0.2584
-0.500   0.5912   0.01309   0.00545  -0.1406   0.7495   0.2858
-0.250   0.6182   0.01291   0.00533  -0.1403   0.7397   0.3198
0.000   0.6441   0.01267   0.00521  -0.1398   0.7293   0.3641
0.250   0.6667   0.01228   0.00521  -0.1387   0.7183   0.4649
0.500   0.7208   0.01120   0.00511  -0.1439   0.7093   0.9999
0.750   0.7460   0.01134   0.00512  -0.1432   0.6978   0.9999
1.000   0.7725   0.01149   0.00512  -0.1428   0.6877   0.9999
1.250   0.7997   0.01164   0.00511  -0.1425   0.6781   0.9999
1.500   0.8250   0.01182   0.00522  -0.1420   0.6680   0.9999
1.750   0.8532   0.01200   0.00522  -0.1419   0.6597   0.9999
2.000   0.8775   0.01220   0.00538  -0.1412   0.6496   0.9999
2.250   0.9054   0.01240   0.00545  -0.1411   0.6420   0.9999
2.500   0.9299   0.01261   0.00564  -0.1405   0.6328   0.9999
2.750   0.9581   0.01284   0.00572  -0.1405   0.6256   0.9999
3.000   0.9820   0.01306   0.00596  -0.1397   0.6170   0.9999
3.250   1.0096   0.01329   0.00609  -0.1396   0.6101   0.9999
3.500   1.0342   0.01354   0.00635  -0.1391   0.6024   0.9999
3.750   1.0606   0.01377   0.00654  -0.1388   0.5954   0.9999
4.000   1.0869   0.01405   0.00677  -0.1385   0.5888   0.9999
4.250   1.1117   0.01430   0.00703  -0.1380   0.5816   0.9999
4.500   1.1397   0.01457   0.00723  -0.1380   0.5756   0.9999
4.750   1.1630   0.01485   0.00757  -0.1373   0.5684   0.9999
5.000   1.1890   0.01511   0.00781  -0.1370   0.5619   0.9999
5.250   1.2155   0.01542   0.00810  -0.1368   0.5560   0.9999
5.500   1.2388   0.01570   0.00844  -0.1360   0.5488   0.9999
5.750   1.2659   0.01597   0.00867  -0.1359   0.5427   0.9999
6.000   1.2893   0.01630   0.00908  -0.1352   0.5361   0.9999
6.250   1.3138   0.01658   0.00940  -0.1346   0.5294   0.9999
6.500   1.3403   0.01690   0.00968  -0.1345   0.5230   0.9999
6.750   1.3613   0.01718   0.01006  -0.1333   0.5149   0.9999
7.000   1.3882   0.01746   0.01029  -0.1331   0.5078   0.9999
7.250   1.4068   0.01771   0.01067  -0.1315   0.4985   0.9999
7.500   1.4296   0.01792   0.01083  -0.1305   0.4885   0.9999
7.750   1.4476   0.01810   0.01109  -0.1287   0.4774   0.9999
8.000   1.4661   0.01835   0.01139  -0.1270   0.4667   0.9999
8.250   1.4878   0.01860   0.01159  -0.1259   0.4569   0.9999
8.500   1.5025   0.01888   0.01201  -0.1236   0.4463   0.9999
8.750   1.5206   0.01917   0.01235  -0.1219   0.4363   0.9999
9.000   1.5355   0.01946   0.01268  -0.1196   0.4250   0.9999
9.250   1.5477   0.01979   0.01312  -0.1169   0.4128   0.9999
9.500   1.5582   0.02015   0.01353  -0.1139   0.4005   0.9999
9.750   1.5674   0.02059   0.01401  -0.1108   0.3871   0.9999
10.000   1.5754   0.02114   0.01459  -0.1076   0.3724   0.9999
10.250   1.5820   0.02180   0.01529  -0.1043   0.3557   0.9999
10.500   1.5874   0.02262   0.01613  -0.1011   0.3364   0.9999
10.750   1.5895   0.02370   0.01717  -0.0976   0.3141   0.9999
11.000   1.5894   0.02506   0.01846  -0.0941   0.2887   0.9999
11.250   1.5853   0.02680   0.02008  -0.0905   0.2606   0.9999
11.500   1.5779   0.02895   0.02209  -0.0868   0.2304   0.9999
11.750   1.5676   0.03153   0.02451  -0.0833   0.1991   0.9999
12.000   1.5549   0.03453   0.02734  -0.0801   0.1694   0.9999
12.250   1.5413   0.03785   0.03052  -0.0772   0.1446   0.9999
12.500   1.5291   0.04126   0.03382  -0.0748   0.1235   0.9999
12.750   1.5173   0.04486   0.03735  -0.0728   0.1084   0.9999
13.000   1.5075   0.04844   0.04092  -0.0712   0.0967   0.9999
13.250   1.4987   0.05208   0.04457  -0.0699   0.0877   0.9999
13.500   1.4876   0.05611   0.04856  -0.0689   0.0813   0.9999
13.750   1.4838   0.05943   0.05197  -0.0681   0.0747   0.9999
14.000   1.4729   0.06361   0.05612  -0.0673   0.0704   0.9999
14.250   1.4713   0.06682   0.05945  -0.0668   0.0656   0.9999
14.500   1.4653   0.07058   0.06321  -0.0663   0.0621   0.9999
14.750   1.4606   0.07412   0.06680  -0.0658   0.0589   0.9999
15.000   1.4597   0.07732   0.07009  -0.0655   0.0557   0.9999
15.250   1.4571   0.08070   0.07348  -0.0652   0.0531   0.9999
15.500   1.4559   0.08371   0.07651  -0.0645   0.0507   0.9999
15.750   1.4575   0.08666   0.07958  -0.0643   0.0483   0.9999
16.000   1.4584   0.08961   0.08257  -0.0642   0.0461   0.9999

XFOIL         Version 6.96

Calculated polar for: NACA 6412

1 1 Reynolds number fixed          Mach number fixed

xtrf =   1.000 (top)        1.000 (bottom)
Mach =   0.000     Re =     0.500 e 6     Ncrit =   9.000

alpha    CL        CD       CDp       CM     Top_Xtr  Bot_Xtr
------ -------- --------- --------- -------- -------- --------
-9.500  -0.1344   0.08939   0.08696  -0.0883   0.9771   0.0354
-9.250  -0.2938   0.02885   0.02541  -0.1484   0.9457   0.0283
-9.000  -0.2807   0.02451   0.02046  -0.1502   0.9392   0.0288
-8.750  -0.2627   0.02239   0.01793  -0.1500   0.9319   0.0293
-8.500  -0.2407   0.02012   0.01534  -0.1503   0.9273   0.0300
-8.250  -0.2191   0.01921   0.01438  -0.1496   0.9208   0.0306
-8.000  -0.1937   0.01861   0.01370  -0.1494   0.9157   0.0314
-7.750  -0.1673   0.01780   0.01274  -0.1494   0.9115   0.0324
-7.500  -0.1435   0.01696   0.01172  -0.1489   0.9055   0.0332
-7.250  -0.1184   0.01622   0.01078  -0.1484   0.8996   0.0341
-7.000  -0.0929   0.01507   0.00944  -0.1482   0.8949   0.0349
-6.750  -0.0682   0.01447   0.00881  -0.1477   0.8886   0.0360
-6.500  -0.0419   0.01404   0.00832  -0.1474   0.8824   0.0373
-6.000   0.0114   0.01319   0.00723  -0.1467   0.8699   0.0400
-5.750   0.0372   0.01249   0.00649  -0.1464   0.8637   0.0418
-5.500   0.0643   0.01217   0.00613  -0.1461   0.8575   0.0437
-5.250   0.0908   0.01188   0.00574  -0.1457   0.8501   0.0458
-5.000   0.1179   0.01140   0.00521  -0.1455   0.8438   0.0486
-4.750   0.1441   0.01119   0.00498  -0.1450   0.8354   0.0516
-4.500   0.1714   0.01085   0.00454  -0.1448   0.8285   0.0549
-4.250   0.1976   0.01060   0.00430  -0.1444   0.8202   0.0586
-4.000   0.2254   0.01048   0.00408  -0.1441   0.8124   0.0622
-3.750   0.2513   0.01018   0.00380  -0.1437   0.8036   0.0676
-3.500   0.2790   0.01009   0.00361  -0.1435   0.7954   0.0720
-3.250   0.3050   0.00983   0.00338  -0.1430   0.7863   0.0784
-3.000   0.3323   0.00973   0.00320  -0.1427   0.7779   0.0845
-2.750   0.3586   0.00957   0.00306  -0.1423   0.7681   0.0925
-2.500   0.3853   0.00945   0.00290  -0.1420   0.7590   0.1011
-2.250   0.4119   0.00939   0.00281  -0.1416   0.7484   0.1099
-2.000   0.4382   0.00927   0.00270  -0.1411   0.7383   0.1218
-1.750   0.4645   0.00920   0.00260  -0.1407   0.7281   0.1339
-1.500   0.4907   0.00914   0.00254  -0.1403   0.7171   0.1468
-1.250   0.5169   0.00911   0.00248  -0.1398   0.7064   0.1609
-1.000   0.5429   0.00910   0.00245  -0.1393   0.6949   0.1772
-0.750   0.5688   0.00907   0.00244  -0.1389   0.6835   0.1956
-0.500   0.5946   0.00906   0.00243  -0.1384   0.6725   0.2155
-0.250   0.6201   0.00907   0.00244  -0.1378   0.6610   0.2375
0.000   0.6458   0.00907   0.00247  -0.1373   0.6494   0.2623
0.250   0.6712   0.00908   0.00250  -0.1368   0.6385   0.2907
0.500   0.6963   0.00908   0.00254  -0.1362   0.6275   0.3269
0.750   0.7212   0.00902   0.00259  -0.1356   0.6168   0.3775
1.000   0.7419   0.00864   0.00273  -0.1343   0.6072   0.5862
1.250   0.8011   0.00799   0.00289  -0.1414   0.5961   0.9999
1.500   0.8268   0.00814   0.00295  -0.1409   0.5870   0.9999
1.750   0.8523   0.00830   0.00302  -0.1404   0.5780   0.9999
2.000   0.8782   0.00845   0.00311  -0.1399   0.5698   0.9999
2.250   0.9038   0.00861   0.00320  -0.1395   0.5618   0.9999
2.500   0.9297   0.00878   0.00331  -0.1391   0.5548   0.9999
2.750   0.9556   0.00893   0.00341  -0.1387   0.5476   0.9999
3.000   0.9810   0.00914   0.00354  -0.1382   0.5410   0.9999
3.250   1.0072   0.00926   0.00366  -0.1379   0.5347   0.9999
3.500   1.0328   0.00943   0.00379  -0.1375   0.5283   0.9999
3.750   1.0584   0.00963   0.00395  -0.1371   0.5223   0.9999
4.000   1.0843   0.00977   0.00409  -0.1367   0.5163   0.9999
4.250   1.1098   0.00996   0.00424  -0.1363   0.5107   0.9999
4.500   1.1353   0.01016   0.00442  -0.1359   0.5051   0.9999
4.750   1.1609   0.01031   0.00459  -0.1355   0.4993   0.9999
5.000   1.1861   0.01051   0.00476  -0.1351   0.4938   0.9999
5.250   1.2116   0.01073   0.00497  -0.1347   0.4889   0.9999
5.500   1.2367   0.01088   0.00516  -0.1342   0.4832   0.9999
5.750   1.2611   0.01109   0.00535  -0.1337   0.4769   0.9999
6.000   1.2856   0.01131   0.00557  -0.1331   0.4708   0.9999
6.250   1.3093   0.01147   0.00576  -0.1324   0.4633   0.9999
6.500   1.3320   0.01172   0.00598  -0.1315   0.4550   0.9999
6.750   1.3544   0.01188   0.00617  -0.1305   0.4454   0.9999
7.000   1.3764   0.01212   0.00640  -0.1295   0.4364   0.9999
7.250   1.3985   0.01233   0.00663  -0.1286   0.4275   0.9999
7.500   1.4203   0.01257   0.00688  -0.1276   0.4189   0.9999
7.750   1.4404   0.01282   0.00715  -0.1262   0.4091   0.9999
8.000   1.4601   0.01307   0.00742  -0.1248   0.3982   0.9999
8.250   1.4785   0.01339   0.00773  -0.1232   0.3873   0.9999
8.500   1.4960   0.01377   0.00808  -0.1215   0.3748   0.9999
8.750   1.5139   0.01415   0.00847  -0.1199   0.3603   0.9999
9.000   1.5288   0.01467   0.00894  -0.1178   0.3423   0.9999
9.250   1.5427   0.01529   0.00949  -0.1157   0.3195   0.9999
9.500   1.5530   0.01612   0.01020  -0.1131   0.2945   0.9999
9.750   1.5615   0.01710   0.01105  -0.1104   0.2660   0.9999
10.000   1.5684   0.01824   0.01203  -0.1076   0.2367   0.9999
10.250   1.5732   0.01955   0.01318  -0.1046   0.2070   0.9999
10.500   1.5761   0.02103   0.01451  -0.1016   0.1774   0.9999
10.750   1.5778   0.02266   0.01600  -0.0986   0.1498   0.9999
11.000   1.5792   0.02439   0.01759  -0.0957   0.1260   0.9999
11.250   1.5797   0.02626   0.01935  -0.0930   0.1058   0.9999
11.500   1.5818   0.02808   0.02111  -0.0906   0.0897   0.9999
11.750   1.5841   0.02998   0.02296  -0.0884   0.0771   0.9999
12.000   1.5861   0.03196   0.02493  -0.0864   0.0673   0.9999
12.250   1.5874   0.03408   0.02705  -0.0845   0.0598   0.9999
12.500   1.5904   0.03615   0.02913  -0.0829   0.0537   0.9999
12.750   1.5928   0.03834   0.03136  -0.0814   0.0489   0.9999
13.000   1.5928   0.04082   0.03387  -0.0800   0.0449   0.9999
13.250   1.5952   0.04319   0.03631  -0.0788   0.0418   0.9999
13.500   1.5959   0.04581   0.03897  -0.0778   0.0390   0.9999
13.750   1.5928   0.04890   0.04212  -0.0767   0.0366   0.9999
14.000   1.5954   0.05145   0.04477  -0.0760   0.0345   0.9999
14.250   1.5936   0.05457   0.04794  -0.0753   0.0327   0.9999
14.500   1.5871   0.05833   0.05176  -0.0746   0.0311   0.9999
14.750   1.5890   0.06114   0.05468  -0.0742   0.0297   0.9999
15.000   1.5882   0.06432   0.05794  -0.0739   0.0283   0.9999
15.250   1.5833   0.06808   0.06176  -0.0737   0.0272   0.9999
15.500   1.5733   0.07257   0.06632  -0.0735   0.0263   0.9999
15.750   1.5732   0.07582   0.06969  -0.0735   0.0255   0.9999
16.000   1.5708   0.07938   0.07334  -0.0735   0.0247   0.9999
16.250   1.5677   0.08308   0.07712  -0.0736   0.0240   0.9999
16.500   1.5633   0.08699   0.08112  -0.0739   0.0233   0.9999
16.750   1.5568   0.09124   0.08543  -0.0743   0.0228   0.9999

XFOIL         Version 6.96

Calculated polar for: NACA 6412

1 1 Reynolds number fixed          Mach number fixed

xtrf =   1.000 (top)        1.000 (bottom)
Mach =   0.000     Re =     1.000 e 6     Ncrit =   9.000

alpha    CL        CD       CDp       CM     Top_Xtr  Bot_Xtr
------ -------- --------- --------- -------- -------- --------
-12.500  -0.2381   0.12675   0.12497  -0.0613   0.9949   0.0187
-12.250  -0.5884   0.02989   0.02711  -0.1461   0.9731   0.0181
-12.000  -0.5846   0.02502   0.02188  -0.1496   0.9651   0.0184
-11.750  -0.5665   0.02313   0.01984  -0.1503   0.9603   0.0187
-11.500  -0.5449   0.02194   0.01854  -0.1507   0.9563   0.0190
-11.250  -0.5247   0.02101   0.01752  -0.1503   0.9507   0.0193
-11.000  -0.5028   0.02003   0.01643  -0.1501   0.9460   0.0196
-10.750  -0.4796   0.01910   0.01537  -0.1501   0.9419   0.0200
-10.500  -0.4574   0.01829   0.01445  -0.1497   0.9365   0.0204
-10.250  -0.4341   0.01753   0.01356  -0.1493   0.9311   0.0207
-10.000  -0.4093   0.01689   0.01278  -0.1491   0.9259   0.0211
-9.750  -0.3853   0.01631   0.01209  -0.1486   0.9193   0.0213
-9.500  -0.3640   0.01502   0.01061  -0.1481   0.9128   0.0219
-9.250  -0.3398   0.01429   0.00980  -0.1478   0.9070   0.0224
-9.000  -0.3144   0.01381   0.00926  -0.1475   0.9012   0.0228
-8.750  -0.2883   0.01336   0.00872  -0.1473   0.8959   0.0234
-8.500  -0.2621   0.01294   0.00822  -0.1470   0.8905   0.0239
-8.250  -0.2360   0.01252   0.00772  -0.1468   0.8845   0.0244
-8.000  -0.2093   0.01216   0.00725  -0.1465   0.8790   0.0249
-7.750  -0.1831   0.01172   0.00672  -0.1463   0.8732   0.0254
-7.500  -0.1577   0.01115   0.00610  -0.1459   0.8667   0.0264
-7.250  -0.1307   0.01089   0.00577  -0.1457   0.8606   0.0272
-7.000  -0.1038   0.01059   0.00543  -0.1455   0.8541   0.0280
-6.750  -0.0767   0.01034   0.00510  -0.1453   0.8476   0.0288
-6.500  -0.0493   0.01015   0.00483  -0.1451   0.8414   0.0295
-6.250  -0.0233   0.00968   0.00432  -0.1447   0.8341   0.0309
-6.000   0.0038   0.00950   0.00408  -0.1445   0.8270   0.0322
-5.750   0.0312   0.00932   0.00386  -0.1443   0.8195   0.0336
-5.500   0.0580   0.00909   0.00355  -0.1440   0.8119   0.0352
-5.250   0.0851   0.00886   0.00330  -0.1437   0.8042   0.0373
-5.000   0.1122   0.00874   0.00312  -0.1435   0.7959   0.0393
-4.750   0.1392   0.00852   0.00288  -0.1432   0.7877   0.0421
-4.500   0.1663   0.00842   0.00273  -0.1429   0.7791   0.0450
-4.250   0.1934   0.00827   0.00256  -0.1427   0.7709   0.0485
-4.000   0.2204   0.00818   0.00243  -0.1424   0.7621   0.0519
-3.750   0.2476   0.00807   0.00228  -0.1421   0.7533   0.0555
-3.500   0.2742   0.00799   0.00217  -0.1417   0.7437   0.0598
-3.250   0.3014   0.00790   0.00206  -0.1415   0.7339   0.0641
-3.000   0.3281   0.00784   0.00197  -0.1411   0.7240   0.0699
-2.750   0.3548   0.00777   0.00188  -0.1408   0.7135   0.0759
-2.500   0.3817   0.00773   0.00181  -0.1405   0.7035   0.0823
-2.250   0.4079   0.00769   0.00175  -0.1401   0.6925   0.0910
-2.000   0.4346   0.00766   0.00170  -0.1397   0.6810   0.0999
-1.750   0.4611   0.00764   0.00167  -0.1394   0.6701   0.1096
-1.500   0.4871   0.00763   0.00165  -0.1389   0.6590   0.1218
-1.250   0.5136   0.00761   0.00163  -0.1386   0.6476   0.1336
-1.000   0.5399   0.00762   0.00162  -0.1382   0.6362   0.1456
-0.750   0.5658   0.00766   0.00162  -0.1377   0.6247   0.1582
-0.500   0.5922   0.00766   0.00164  -0.1373   0.6135   0.1742
-0.250   0.6183   0.00768   0.00166  -0.1369   0.6028   0.1908
0.000   0.6438   0.00773   0.00169  -0.1364   0.5917   0.2090
0.250   0.6703   0.00775   0.00173  -0.1361   0.5814   0.2297
0.500   0.6960   0.00778   0.00178  -0.1356   0.5717   0.2530
0.750   0.7219   0.00781   0.00183  -0.1352   0.5621   0.2791
1.000   0.7477   0.00783   0.00190  -0.1348   0.5531   0.3112
1.250   0.7732   0.00785   0.00197  -0.1343   0.5442   0.3483
1.500   0.7981   0.00775   0.00205  -0.1338   0.5366   0.4267
1.750   0.8176   0.00727   0.00223  -0.1322   0.5294   0.7060
2.000   0.8914   0.00694   0.00244  -0.1428   0.5209   0.9999
2.250   0.9181   0.00706   0.00251  -0.1425   0.5140   0.9999
2.500   0.9439   0.00723   0.00261  -0.1421   0.5073   0.9999
2.750   0.9712   0.00731   0.00268  -0.1420   0.5019   0.9999
3.000   0.9976   0.00745   0.00278  -0.1417   0.4959   0.9999
3.250   1.0234   0.00761   0.00289  -0.1414   0.4901   0.9999
3.500   1.0507   0.00770   0.00298  -0.1413   0.4856   0.9999
3.750   1.0771   0.00783   0.00309  -0.1410   0.4801   0.9999
4.000   1.1026   0.00802   0.00323  -0.1406   0.4742   0.9999
4.250   1.1297   0.00812   0.00334  -0.1405   0.4704   0.9999
4.500   1.1564   0.00824   0.00346  -0.1403   0.4659   0.9999
4.750   1.1821   0.00840   0.00360  -0.1400   0.4604   0.9999
5.000   1.2078   0.00857   0.00375  -0.1396   0.4548   0.9999
5.250   1.2344   0.00868   0.00387  -0.1395   0.4491   0.9999
5.500   1.2590   0.00889   0.00404  -0.1389   0.4411   0.9999
5.750   1.2853   0.00901   0.00417  -0.1387   0.4336   0.9999
6.000   1.3097   0.00922   0.00434  -0.1382   0.4247   0.9999
6.250   1.3354   0.00937   0.00449  -0.1379   0.4157   0.9999
6.500   1.3592   0.00960   0.00468  -0.1372   0.4071   0.9999
6.750   1.3845   0.00976   0.00486  -0.1369   0.3977   0.9999
7.000   1.4079   0.01002   0.00507  -0.1362   0.3856   0.9999
7.250   1.4306   0.01030   0.00530  -0.1354   0.3738   0.9999
7.500   1.4528   0.01061   0.00557  -0.1345   0.3587   0.9999
7.750   1.4739   0.01096   0.00586  -0.1334   0.3428   0.9999
8.000   1.4931   0.01135   0.00618  -0.1320   0.3246   0.9999
8.250   1.5101   0.01185   0.00658  -0.1302   0.3022   0.9999
8.500   1.5244   0.01249   0.00708  -0.1280   0.2760   0.9999
8.750   1.5375   0.01323   0.00766  -0.1257   0.2485   0.9999
9.000   1.5493   0.01405   0.00833  -0.1232   0.2197   0.9999
9.250   1.5596   0.01496   0.00908  -0.1206   0.1906   0.9999
9.500   1.5686   0.01597   0.00993  -0.1178   0.1626   0.9999
9.750   1.5768   0.01703   0.01085  -0.1151   0.1370   0.9999
10.000   1.5846   0.01815   0.01184  -0.1124   0.1148   0.9999
10.250   1.5927   0.01928   0.01286  -0.1098   0.0962   0.9999
10.500   1.6003   0.02047   0.01396  -0.1073   0.0808   0.9999
10.750   1.6092   0.02162   0.01506  -0.1051   0.0689   0.9999
11.000   1.6180   0.02280   0.01621  -0.1030   0.0601   0.9999
11.500   1.6370   0.02519   0.01858  -0.0993   0.0472   0.9999
11.750   1.6458   0.02647   0.01988  -0.0975   0.0424   0.9999
12.000   1.6538   0.02786   0.02128  -0.0957   0.0386   0.9999
12.250   1.6624   0.02925   0.02269  -0.0941   0.0352   0.9999
12.500   1.6687   0.03086   0.02431  -0.0924   0.0321   0.9999
12.750   1.6767   0.03236   0.02586  -0.0909   0.0297   0.9999
13.000   1.6824   0.03412   0.02764  -0.0894   0.0275   0.9999
13.250   1.6879   0.03595   0.02952  -0.0880   0.0256   0.9999
13.500   1.6937   0.03781   0.03143  -0.0867   0.0241   0.9999
13.750   1.6955   0.04010   0.03375  -0.0853   0.0224   0.9999
14.000   1.7003   0.04218   0.03590  -0.0842   0.0213   0.9999
14.250   1.7043   0.04440   0.03819  -0.0832   0.0202   0.9999
14.500   1.7056   0.04695   0.04079  -0.0822   0.0193   0.9999
14.750   1.7028   0.05000   0.04391  -0.0812   0.0183   0.9999
15.000   1.7063   0.05244   0.04643  -0.0805   0.0178   0.9999
15.250   1.7079   0.05513   0.04920  -0.0799   0.0172   0.9999
15.500   1.7084   0.05801   0.05215  -0.0793   0.0167   0.9999
15.750   1.7073   0.06113   0.05533  -0.0788   0.0162   0.9999
16.000   1.7035   0.06460   0.05887  -0.0784   0.0157   0.9999
16.250   1.6960   0.06861   0.06297  -0.0781   0.0152   0.9999
16.500   1.6929   0.07215   0.06660  -0.0779   0.0149   0.9999
16.750   1.6922   0.07540   0.06994  -0.0778   0.0147   0.9999
17.000   1.6896   0.07891   0.07354  -0.0778   0.0144   0.9999
17.250   1.6858   0.08262   0.07733  -0.0779   0.0142   0.9999
17.500   1.6817   0.08641   0.08122  -0.0781   0.0139   0.9999
17.750   1.6776   0.09024   0.08513  -0.0784   0.0137   0.9999
18.000   1.6730   0.09416   0.08913  -0.0787   0.0134   0.9999
18.250   1.6669   0.09832   0.09337  -0.0792   0.0132   0.9999
18.500   1.6597   0.10266   0.09779  -0.0798   0.0130   0.9999
18.750   1.6514   0.10721   0.10243  -0.0806   0.0128   0.9999
19.000   1.6422   0.11196   0.10727  -0.0815   0.0126   0.9999
19.250   1.6307   0.11712   0.11251  -0.0826   0.0124   0.9999
