XFOIL         Version 6.96

Calculated polar for: NACA 2412

1 1 Reynolds number fixed          Mach number fixed

xtrf =   1.000 (top)        1.000 (bottom)
Mach =   0.000     Re =     0.050 e 6     Ncrit =   9.000

alpha    CL        CD       CDp       CM     Top_Xtr  Bot_Xtr
------ -------- --------- --------- -------- -------- --------
-8.500  -0.4124   0.09868   0.09109  -0.0085   1.0000   0.3526
-8.250  -0.4121   0.09574   0.08821  -0.0081   1.0000   0.3645
-7.750  -0.5569   0.07132   0.06409  -0.0348   1.0000   0.1944
-7.500  -0.5864   0.06278   0.05529  -0.0376   1.0000   0.1791
-7.250  -0.5842   0.05855   0.05097  -0.0368   1.0000   0.1769
-7.000  -0.5854   0.05412   0.04630  -0.0361   1.0000   0.1759
-6.750  -0.5839   0.04991   0.04175  -0.0352   1.0000   0.1761
-6.500  -0.5787   0.04598   0.03741  -0.0342   1.0000   0.1769
-6.250  -0.5695   0.04233   0.03327  -0.0332   1.0000   0.1780
-6.000  -0.5571   0.03904   0.02937  -0.0321   1.0000   0.1801
-5.750  -0.5390   0.03725   0.02771  -0.0308   1.0000   0.1865
-5.500  -0.5221   0.03502   0.02500  -0.0297   1.0000   0.1945
-5.250  -0.5027   0.03319   0.02312  -0.0286   1.0000   0.2026
-5.000  -0.4827   0.03140   0.02102  -0.0277   1.0000   0.2144
-4.750  -0.4620   0.03000   0.01947  -0.0267   1.0000   0.2296
-4.500  -0.4411   0.02879   0.01829  -0.0256   1.0000   0.2477
-4.250  -0.4199   0.02773   0.01724  -0.0246   1.0000   0.2698
-4.000  -0.3983   0.02669   0.01619  -0.0237   1.0000   0.2964
-3.750  -0.3765   0.02576   0.01532  -0.0228   1.0000   0.3281
-3.500  -0.3545   0.02487   0.01462  -0.0218   1.0000   0.3646
-3.250  -0.3320   0.02402   0.01394  -0.0209   1.0000   0.4107
-3.000  -0.3108   0.02326   0.01352  -0.0195   1.0000   0.4653
-2.750  -0.2902   0.02263   0.01326  -0.0179   1.0000   0.5330
-2.500  -0.2718   0.02208   0.01312  -0.0155   1.0000   0.6126
-2.250  -0.2578   0.02160   0.01314  -0.0116   1.0000   0.7057
-2.000  -0.2485   0.02133   0.01336  -0.0057   1.0000   0.8198
-1.750  -0.1469   0.02166   0.01342  -0.0186   1.0000   1.0000
-1.500  -0.1502   0.02143   0.01292  -0.0162   1.0000   1.0000
-1.250  -0.1389   0.02160   0.01282  -0.0154   1.0000   1.0000
-1.000  -0.1244   0.02191   0.01290  -0.0148   1.0000   1.0000
-0.750  -0.1086   0.02233   0.01312  -0.0144   1.0000   1.0000
-0.500  -0.0922   0.02284   0.01344  -0.0142   1.0000   1.0000
-0.250  -0.0756   0.02341   0.01387  -0.0140   1.0000   1.0000
0.000  -0.0589   0.02406   0.01437  -0.0139   1.0000   1.0000
0.250  -0.0109   0.02515   0.01529  -0.0196   0.9880   1.0000
0.500   0.0450   0.02630   0.01630  -0.0263   0.9727   1.0000
0.750   0.0927   0.02724   0.01713  -0.0315   0.9559   1.0000
1.000   0.1375   0.02810   0.01792  -0.0359   0.9390   1.0000
1.250   0.1811   0.02891   0.01867  -0.0399   0.9222   1.0000
1.500   0.2231   0.02966   0.01938  -0.0434   0.9055   1.0000
1.750   0.2633   0.03035   0.02005  -0.0464   0.8888   1.0000
2.000   0.3025   0.03099   0.02069  -0.0491   0.8722   1.0000
2.250   0.3408   0.03158   0.02130  -0.0514   0.8557   1.0000
2.500   0.3785   0.03212   0.02188  -0.0534   0.8391   1.0000
2.750   0.4157   0.03261   0.02241  -0.0552   0.8227   1.0000
3.000   0.4528   0.03304   0.02290  -0.0568   0.8062   1.0000
3.250   0.4905   0.03336   0.02329  -0.0582   0.7897   1.0000
3.500   0.5281   0.03358   0.02359  -0.0593   0.7732   1.0000
3.750   0.5639   0.03371   0.02382  -0.0598   0.7566   1.0000
4.000   0.5990   0.03375   0.02396  -0.0600   0.7398   1.0000
4.250   0.6342   0.03367   0.02400  -0.0599   0.7228   1.0000
4.500   0.6700   0.03344   0.02387  -0.0596   0.7056   1.0000
4.750   0.7067   0.03304   0.02359  -0.0591   0.6881   1.0000
5.000   0.7429   0.03256   0.02322  -0.0583   0.6701   1.0000
5.250   0.7613   0.03315   0.02391  -0.0562   0.6481   1.0000
5.500   0.7935   0.03277   0.02364  -0.0549   0.6273   1.0000
5.750   0.8345   0.03161   0.02252  -0.0537   0.6057   1.0000
6.000   0.8567   0.03159   0.02258  -0.0512   0.5785   1.0000
6.250   0.8858   0.03097   0.02197  -0.0490   0.5498   1.0000
6.500   0.9139   0.03048   0.02143  -0.0468   0.5195   1.0000
6.750   0.9384   0.03029   0.02118  -0.0444   0.4869   1.0000
7.000   0.9598   0.03027   0.02111  -0.0418   0.4512   1.0000
7.250   0.9816   0.03017   0.02079  -0.0391   0.4122   1.0000
7.500   0.9960   0.03062   0.02110  -0.0360   0.3698   1.0000
7.750   1.0111   0.03129   0.02146  -0.0330   0.3273   1.0000
8.000   1.0252   0.03245   0.02238  -0.0304   0.2889   1.0000
8.250   1.0412   0.03394   0.02364  -0.0282   0.2576   1.0000
8.500   1.0592   0.03571   0.02527  -0.0266   0.2334   1.0000
8.750   1.0779   0.03769   0.02726  -0.0252   0.2149   1.0000
9.000   1.0969   0.03979   0.02940  -0.0239   0.2003   1.0000
9.250   1.1165   0.04201   0.03167  -0.0229   0.1886   1.0000
9.500   1.1354   0.04445   0.03424  -0.0217   0.1797   1.0000
9.750   1.1471   0.04737   0.03747  -0.0200   0.1731   1.0000
10.000   1.1591   0.04997   0.04031  -0.0183   0.1663   1.0000
10.250   1.1743   0.05308   0.04351  -0.0172   0.1611   1.0000
10.500   1.1677   0.05686   0.04785  -0.0142   0.1591   1.0000
10.750   1.1563   0.06085   0.05228  -0.0113   0.1573   1.0000
11.000   1.1391   0.06510   0.05688  -0.0084   0.1562   1.0000
11.250   1.1121   0.06964   0.06171  -0.0054   0.1562   1.0000
11.500   1.0760   0.07509   0.06736  -0.0035   0.1575   1.0000
11.750   1.0357   0.08206   0.07449  -0.0039   0.1595   1.0000
12.000   1.0001   0.09021   0.08272  -0.0064   0.1613   1.0000
12.250   0.8261   0.12916   0.12142  -0.0343   0.1942   1.0000
12.500   0.8419   0.13272   0.12503  -0.0334   0.1921   1.0000

XFOIL         Version 6.96

Calculated polar for: NACA 2412

1 1 Reynolds number fixed          Mach number fixed

xtrf =   1.000 (top)        1.000 (bottom)
Mach =   0.000     Re =     0.100 e 6     Ncrit =   9.000

alpha    CL        CD       CDp       CM     Top_Xtr  Bot_Xtr
------ -------- --------- --------- -------- -------- --------
-9.250  -0.4676   0.09591   0.09056  -0.0237   1.0000   0.1755
-9.000  -0.6490   0.06371   0.05820  -0.0496   1.0000   0.1058
-8.750  -0.6415   0.05994   0.05441  -0.0485   1.0000   0.1028
-8.500  -0.6490   0.05536   0.04969  -0.0471   1.0000   0.1010
-8.250  -0.6597   0.05048   0.04453  -0.0453   1.0000   0.0998
-8.000  -0.6647   0.04615   0.03984  -0.0432   1.0000   0.0994
-7.750  -0.6640   0.04234   0.03564  -0.0410   1.0000   0.0995
-7.500  -0.6588   0.03888   0.03177  -0.0389   1.0000   0.0996
-7.250  -0.6495   0.03591   0.02836  -0.0369   1.0000   0.1001
-7.000  -0.6370   0.03353   0.02555  -0.0350   1.0000   0.1020
-6.750  -0.6223   0.03168   0.02319  -0.0332   1.0000   0.1043
-6.500  -0.6052   0.02943   0.02072  -0.0320   1.0000   0.1066
-6.250  -0.5859   0.02792   0.01913  -0.0308   1.0000   0.1094
-6.000  -0.5659   0.02665   0.01770  -0.0297   1.0000   0.1128
-5.750  -0.5454   0.02556   0.01633  -0.0285   1.0000   0.1179
-5.500  -0.5240   0.02425   0.01500  -0.0277   1.0000   0.1234
-5.250  -0.5023   0.02334   0.01401  -0.0267   1.0000   0.1303
-5.000  -0.4796   0.02227   0.01289  -0.0260   1.0000   0.1383
-4.750  -0.4571   0.02158   0.01212  -0.0253   1.0000   0.1505
-4.500  -0.4346   0.02090   0.01149  -0.0246   1.0000   0.1654
-4.250  -0.4122   0.02023   0.01097  -0.0241   1.0000   0.1829
-4.000  -0.3902   0.01975   0.01062  -0.0235   1.0000   0.2038
-3.750  -0.3680   0.01937   0.01030  -0.0229   1.0000   0.2293
-3.500  -0.3461   0.01903   0.01012  -0.0225   1.0000   0.2585
-3.250  -0.3240   0.01868   0.00996  -0.0221   1.0000   0.2943
-3.000  -0.3019   0.01831   0.00987  -0.0217   1.0000   0.3378
-2.750  -0.2753   0.01795   0.00982  -0.0222   0.9986   0.3943
-2.500  -0.2306   0.01757   0.00992  -0.0259   0.9915   0.4789
-2.250  -0.1869   0.01728   0.01014  -0.0291   0.9841   0.5825
-2.000  -0.1494   0.01704   0.01035  -0.0304   0.9748   0.6944
-1.750  -0.1161   0.01697   0.01065  -0.0302   0.9650   0.8044
-1.500  -0.0695   0.01716   0.01096  -0.0322   0.9578   0.9127
-1.250   0.0156   0.01742   0.01109  -0.0429   0.9534   0.9916
-1.000   0.0782   0.01739   0.01088  -0.0503   0.9458   1.0000
-0.750   0.1209   0.01732   0.01067  -0.0539   0.9330   1.0000
-0.500   0.1665   0.01724   0.01047  -0.0577   0.9215   1.0000
-0.250   0.2237   0.01701   0.01015  -0.0633   0.9139   1.0000
0.000   0.2623   0.01684   0.00991  -0.0654   0.9003   1.0000
0.250   0.3002   0.01665   0.00966  -0.0672   0.8869   1.0000
0.500   0.3370   0.01643   0.00939  -0.0685   0.8737   1.0000
0.750   0.3725   0.01619   0.00910  -0.0695   0.8606   1.0000
1.000   0.4063   0.01593   0.00881  -0.0699   0.8473   1.0000
1.250   0.4371   0.01571   0.00854  -0.0698   0.8332   1.0000
1.500   0.4637   0.01560   0.00838  -0.0689   0.8173   1.0000
1.750   0.4896   0.01553   0.00825  -0.0679   0.8011   1.0000
2.000   0.5150   0.01549   0.00816  -0.0668   0.7847   1.0000
2.250   0.5396   0.01550   0.00812  -0.0656   0.7678   1.0000
2.500   0.5637   0.01556   0.00813  -0.0643   0.7505   1.0000
2.750   0.5877   0.01565   0.00817  -0.0631   0.7331   1.0000
3.000   0.6117   0.01576   0.00823  -0.0618   0.7155   1.0000
3.250   0.6359   0.01588   0.00832  -0.0607   0.6979   1.0000
3.500   0.6601   0.01603   0.00843  -0.0595   0.6804   1.0000
3.750   0.6843   0.01620   0.00856  -0.0584   0.6628   1.0000
4.000   0.7087   0.01639   0.00871  -0.0573   0.6452   1.0000
4.250   0.7331   0.01659   0.00889  -0.0562   0.6275   1.0000
4.500   0.7575   0.01680   0.00906  -0.0551   0.6095   1.0000
4.750   0.7821   0.01697   0.00915  -0.0540   0.5902   1.0000
5.000   0.8043   0.01717   0.00935  -0.0525   0.5674   1.0000
5.250   0.8272   0.01736   0.00947  -0.0511   0.5447   1.0000
5.500   0.8503   0.01760   0.00963  -0.0498   0.5229   1.0000
5.750   0.8718   0.01787   0.00992  -0.0484   0.4990   1.0000
6.000   0.8941   0.01813   0.01008  -0.0470   0.4753   1.0000
6.250   0.9140   0.01840   0.01038  -0.0453   0.4478   1.0000
6.500   0.9336   0.01869   0.01064  -0.0436   0.4192   1.0000
6.750   0.9522   0.01903   0.01094  -0.0418   0.3879   1.0000
7.000   0.9695   0.01946   0.01129  -0.0398   0.3531   1.0000
7.250   0.9849   0.02006   0.01171  -0.0376   0.3145   1.0000
7.500   0.9979   0.02093   0.01235  -0.0352   0.2703   1.0000
7.750   1.0091   0.02212   0.01328  -0.0327   0.2267   1.0000
8.000   1.0201   0.02352   0.01435  -0.0302   0.1933   1.0000
8.250   1.0338   0.02486   0.01554  -0.0281   0.1685   1.0000
8.500   1.0496   0.02622   0.01676  -0.0264   0.1519   1.0000
8.750   1.0677   0.02760   0.01807  -0.0250   0.1395   1.0000
9.000   1.0874   0.02904   0.01944  -0.0240   0.1298   1.0000
9.250   1.1079   0.03035   0.02072  -0.0230   0.1217   1.0000
9.500   1.1314   0.03206   0.02248  -0.0225   0.1157   1.0000
9.750   1.1526   0.03349   0.02400  -0.0216   0.1100   1.0000
10.000   1.1784   0.03556   0.02597  -0.0217   0.1048   1.0000
10.250   1.1961   0.03723   0.02797  -0.0203   0.1011   1.0000
10.500   1.2140   0.03894   0.02985  -0.0192   0.0972   1.0000
10.750   1.2391   0.04137   0.03216  -0.0194   0.0930   1.0000
11.000   1.2486   0.04359   0.03478  -0.0172   0.0908   1.0000
11.250   1.2553   0.04577   0.03737  -0.0148   0.0882   1.0000
11.500   1.2639   0.04793   0.03977  -0.0128   0.0854   1.0000
11.750   1.2761   0.05012   0.04207  -0.0115   0.0828   1.0000
12.000   1.2907   0.05426   0.04622  -0.0112   0.0802   1.0000
12.250   1.2781   0.05664   0.04906  -0.0072   0.0793   1.0000
12.500   1.2610   0.05934   0.05213  -0.0031   0.0786   1.0000
12.750   1.2411   0.06248   0.05559   0.0004   0.0780   1.0000
13.000   1.2187   0.06618   0.05959   0.0029   0.0776   1.0000
13.250   1.1933   0.07055   0.06423   0.0044   0.0775   1.0000
13.500   1.1650   0.07573   0.06968   0.0045   0.0777   1.0000
13.750   1.1339   0.08190   0.07607   0.0032   0.0781   1.0000
14.000   1.1009   0.08918   0.08355   0.0004   0.0787   1.0000
14.250   1.0677   0.09758   0.09211  -0.0035   0.0794   1.0000
14.500   1.0377   0.10673   0.10136  -0.0080   0.0800   1.0000

XFOIL         Version 6.96

Calculated polar for: NACA 2412

1 1 Reynolds number fixed          Mach number fixed

xtrf =   1.000 (top)        1.000 (bottom)
Mach =   0.000     Re =     0.100 e 6     Ncrit =   9.000

alpha    CL        CD       CDp       CM     Top_Xtr  Bot_Xtr
------ -------- --------- --------- -------- -------- --------
-9.250  -0.4676   0.09591   0.09056  -0.0237   1.0000   0.1755
-9.000  -0.6490   0.06371   0.05820  -0.0496   1.0000   0.1058
-8.750  -0.6415   0.05994   0.05441  -0.0485   1.0000   0.1028
-8.500  -0.6490   0.05536   0.04969  -0.0471   1.0000   0.1010
-8.250  -0.6597   0.05048   0.04453  -0.0453   1.0000   0.0998
-8.000  -0.6647   0.04615   0.03984  -0.0432   1.0000   0.0994
-7.750  -0.6640   0.04234   0.03564  -0.0410   1.0000   0.0995
-7.500  -0.6588   0.03888   0.03177  -0.0389   1.0000   0.0996
-7.250  -0.6495   0.03591   0.02836  -0.0369   1.0000   0.1001
-7.000  -0.6370   0.03353   0.02555  -0.0350   1.0000   0.1020
-6.750  -0.6223   0.03168   0.02319  -0.0332   1.0000   0.1043
-6.500  -0.6052   0.02943   0.02072  -0.0320   1.0000   0.1066
-6.250  -0.5859   0.02792   0.01913  -0.0308   1.0000   0.1094
-6.000  -0.5659   0.02665   0.01770  -0.0297   1.0000   0.1128
-5.750  -0.5454   0.02556   0.01633  -0.0285   1.0000   0.1179
-5.500  -0.5240   0.02425   0.01500  -0.0277   1.0000   0.1234
-5.250  -0.5023   0.02334   0.01401  -0.0267   1.0000   0.1303
-5.000  -0.4796   0.02227   0.01289  -0.0260   1.0000   0.1383
-4.750  -0.4571   0.02158   0.01212  -0.0253   1.0000   0.1505
-4.500  -0.4346   0.02090   0.01149  -0.0246   1.0000   0.1654
-4.250  -0.4122   0.02023   0.01097  -0.0241   1.0000   0.1829
-4.000  -0.3902   0.01975   0.01062  -0.0235   1.0000   0.2038
-3.750  -0.3680   0.01937   0.01030  -0.0229   1.0000   0.2293
-3.500  -0.3461   0.01903   0.01012  -0.0225   1.0000   0.2585
-3.250  -0.3240   0.01868   0.00996  -0.0221   1.0000   0.2943
-3.000  -0.3019   0.01831   0.00987  -0.0217   1.0000   0.3378
-2.750  -0.2753   0.01795   0.00982  -0.0222   0.9986   0.3943
-2.500  -0.2306   0.01757   0.00992  -0.0259   0.9915   0.4789
-2.250  -0.1869   0.01728   0.01014  -0.0291   0.9841   0.5825
-2.000  -0.1494   0.01704   0.01035  -0.0304   0.9748   0.6944
-1.750  -0.1161   0.01697   0.01065  -0.0302   0.9650   0.8044
-1.500  -0.0695   0.01716   0.01096  -0.0322   0.9578   0.9127
-1.250   0.0156   0.01742   0.01109  -0.0429   0.9534   0.9916
-1.000   0.0782   0.01739   0.01088  -0.0503   0.9458   1.0000
-0.750   0.1209   0.01732   0.01067  -0.0539   0.9330   1.0000
-0.500   0.1665   0.01724   0.01047  -0.0577   0.9215   1.0000
-0.250   0.2237   0.01701   0.01015  -0.0633   0.9139   1.0000
0.000   0.2623   0.01684   0.00991  -0.0654   0.9003   1.0000
0.250   0.3002   0.01665   0.00966  -0.0672   0.8869   1.0000
0.500   0.3370   0.01643   0.00939  -0.0685   0.8737   1.0000
0.750   0.3725   0.01619   0.00910  -0.0695   0.8606   1.0000
1.000   0.4063   0.01593   0.00881  -0.0699   0.8473   1.0000
1.250   0.4371   0.01571   0.00854  -0.0698   0.8332   1.0000
1.500   0.4637   0.01560   0.00838  -0.0689   0.8173   1.0000
1.750   0.4896   0.01553   0.00825  -0.0679   0.8011   1.0000
2.000   0.5150   0.01549   0.00816  -0.0668   0.7847   1.0000
2.250   0.5396   0.01550   0.00812  -0.0656   0.7678   1.0000
2.500   0.5637   0.01556   0.00813  -0.0643   0.7505   1.0000
2.750   0.5877   0.01565   0.00817  -0.0631   0.7331   1.0000
3.000   0.6117   0.01576   0.00823  -0.0618   0.7155   1.0000
3.250   0.6359   0.01588   0.00832  -0.0607   0.6979   1.0000
3.500   0.6601   0.01603   0.00843  -0.0595   0.6804   1.0000
3.750   0.6843   0.01620   0.00856  -0.0584   0.6628   1.0000
4.000   0.7087   0.01639   0.00871  -0.0573   0.6452   1.0000
4.250   0.7331   0.01659   0.00889  -0.0562   0.6275   1.0000
4.500   0.7575   0.01680   0.00906  -0.0551   0.6095   1.0000
4.750   0.7821   0.01697   0.00915  -0.0540   0.5902   1.0000
5.000   0.8043   0.01717   0.00935  -0.0525   0.5674   1.0000
5.250   0.8272   0.01736   0.00947  -0.0511   0.5447   1.0000
5.500   0.8503   0.01760   0.00963  -0.0498   0.5229   1.0000
5.750   0.8718   0.01787   0.00992  -0.0484   0.4990   1.0000
6.000   0.8941   0.01813   0.01008  -0.0470   0.4753   1.0000
6.250   0.9140   0.01840   0.01038  -0.0453   0.4478   1.0000
6.500   0.9336   0.01869   0.01064  -0.0436   0.4192   1.0000
6.750   0.9522   0.01903   0.01094  -0.0418   0.3879   1.0000
7.000   0.9695   0.01946   0.01129  -0.0398   0.3531   1.0000
7.250   0.9849   0.02006   0.01171  -0.0376   0.3145   1.0000
7.500   0.9979   0.02093   0.01235  -0.0352   0.2703   1.0000
7.750   1.0091   0.02212   0.01328  -0.0327   0.2267   1.0000
8.000   1.0201   0.02352   0.01435  -0.0302   0.1933   1.0000
8.250   1.0338   0.02486   0.01554  -0.0281   0.1685   1.0000
8.500   1.0496   0.02622   0.01676  -0.0264   0.1519   1.0000
8.750   1.0677   0.02760   0.01807  -0.0250   0.1395   1.0000
9.000   1.0874   0.02904   0.01944  -0.0240   0.1298   1.0000
9.250   1.1079   0.03035   0.02072  -0.0230   0.1217   1.0000
9.500   1.1314   0.03206   0.02248  -0.0225   0.1157   1.0000
9.750   1.1526   0.03349   0.02400  -0.0216   0.1100   1.0000
10.000   1.1784   0.03556   0.02597  -0.0217   0.1048   1.0000
10.250   1.1961   0.03723   0.02797  -0.0203   0.1011   1.0000
10.500   1.2140   0.03894   0.02985  -0.0192   0.0972   1.0000
10.750   1.2391   0.04137   0.03216  -0.0194   0.0930   1.0000
11.000   1.2486   0.04359   0.03478  -0.0172   0.0908   1.0000
11.250   1.2553   0.04577   0.03737  -0.0148   0.0882   1.0000
11.500   1.2639   0.04793   0.03977  -0.0128   0.0854   1.0000
11.750   1.2761   0.05012   0.04207  -0.0115   0.0828   1.0000
12.000   1.2907   0.05426   0.04622  -0.0112   0.0802   1.0000
12.250   1.2781   0.05664   0.04906  -0.0072   0.0793   1.0000
12.500   1.2610   0.05934   0.05213  -0.0031   0.0786   1.0000
12.750   1.2411   0.06248   0.05559   0.0004   0.0780   1.0000
13.000   1.2187   0.06618   0.05959   0.0029   0.0776   1.0000
13.250   1.1933   0.07055   0.06423   0.0044   0.0775   1.0000
13.500   1.1650   0.07573   0.06968   0.0045   0.0777   1.0000
13.750   1.1339   0.08190   0.07607   0.0032   0.0781   1.0000
14.000   1.1009   0.08918   0.08355   0.0004   0.0787   1.0000
14.250   1.0677   0.09758   0.09211  -0.0035   0.0794   1.0000
14.500   1.0377   0.10673   0.10136  -0.0080   0.0800   1.0000

XFOIL         Version 6.96

Calculated polar for: NACA 2412

1 1 Reynolds number fixed          Mach number fixed

xtrf =   1.000 (top)        1.000 (bottom)
Mach =   0.000     Re =     0.200 e 6     Ncrit =   9.000

alpha    CL        CD       CDp       CM     Top_Xtr  Bot_Xtr
------ -------- --------- --------- -------- -------- --------
-11.250  -0.6309   0.07906   0.07523  -0.0460   1.0000   0.0578
-11.000  -0.6470   0.07081   0.06694  -0.0515   1.0000   0.0563
-10.750  -0.6836   0.06148   0.05751  -0.0592   1.0000   0.0552
-10.500  -0.7222   0.05571   0.05159  -0.0599   1.0000   0.0544
-10.250  -0.7548   0.05015   0.04576  -0.0582   1.0000   0.0538
-10.000  -0.7768   0.04535   0.04060  -0.0553   1.0000   0.0536
-9.750  -0.7869   0.04159   0.03649  -0.0523   1.0000   0.0540
-9.500  -0.7902   0.03850   0.03301  -0.0494   1.0000   0.0550
-9.250  -0.7886   0.03584   0.02995  -0.0465   1.0000   0.0560
-9.000  -0.7827   0.03372   0.02742  -0.0437   1.0000   0.0569
-8.750  -0.7748   0.03126   0.02459  -0.0413   1.0000   0.0577
-8.500  -0.7612   0.02919   0.02246  -0.0397   1.0000   0.0591
-8.250  -0.7451   0.02818   0.02139  -0.0381   1.0000   0.0607
-8.000  -0.7287   0.02707   0.02016  -0.0365   1.0000   0.0622
-7.750  -0.7120   0.02579   0.01868  -0.0348   1.0000   0.0636
-7.500  -0.6943   0.02467   0.01734  -0.0333   1.0000   0.0652
-7.250  -0.6759   0.02383   0.01627  -0.0318   1.0000   0.0668
-7.000  -0.6567   0.02232   0.01461  -0.0306   1.0000   0.0685
-6.750  -0.6366   0.02134   0.01363  -0.0295   1.0000   0.0703
-6.500  -0.6161   0.02064   0.01289  -0.0284   1.0000   0.0723
-6.250  -0.5953   0.02005   0.01222  -0.0274   1.0000   0.0750
-6.000  -0.5737   0.01956   0.01160  -0.0264   1.0000   0.0778
-5.750  -0.5515   0.01862   0.01066  -0.0257   1.0000   0.0809
-5.500  -0.5215   0.01805   0.01012  -0.0265   0.9983   0.0853
-5.250  -0.4810   0.01744   0.00944  -0.0293   0.9945   0.0921
-5.000  -0.4426   0.01682   0.00888  -0.0318   0.9899   0.1027
-4.750  -0.4028   0.01619   0.00830  -0.0345   0.9856   0.1178
-4.500  -0.3645   0.01559   0.00779  -0.0369   0.9808   0.1367
-4.250  -0.3259   0.01510   0.00743  -0.0395   0.9753   0.1586
-4.000  -0.2847   0.01468   0.00713  -0.0424   0.9712   0.1855
-3.750  -0.2495   0.01427   0.00686  -0.0442   0.9641   0.2172
-3.500  -0.2077   0.01384   0.00664  -0.0472   0.9600   0.2630
-3.250  -0.1739   0.01346   0.00645  -0.0486   0.9524   0.3108
-3.000  -0.1339   0.01300   0.00622  -0.0512   0.9475   0.3634
-2.750  -0.0915   0.01251   0.00599  -0.0543   0.9440   0.4229
-2.500  -0.0617   0.01209   0.00584  -0.0546   0.9346   0.4848
-2.250  -0.0238   0.01158   0.00565  -0.0563   0.9300   0.5641
-2.000   0.0038   0.01123   0.00555  -0.0558   0.9201   0.6325
-1.750   0.0373   0.01081   0.00538  -0.0562   0.9141   0.7014
-1.500   0.0627   0.01054   0.00532  -0.0549   0.9033   0.7617
-1.250   0.0931   0.01028   0.00521  -0.0543   0.8961   0.8189
-1.000   0.1195   0.01017   0.00518  -0.0528   0.8846   0.8688
-0.750   0.1515   0.01013   0.00516  -0.0525   0.8741   0.9129
-0.500   0.1930   0.01007   0.00505  -0.0542   0.8653   0.9446
-0.250   0.2372   0.01006   0.00497  -0.0569   0.8524   0.9643
0.000   0.2860   0.01001   0.00485  -0.0608   0.8392   0.9789
0.250   0.3359   0.00994   0.00469  -0.0650   0.8247   0.9917
0.500   0.3796   0.00985   0.00451  -0.0682   0.8082   1.0000
0.750   0.4025   0.00981   0.00436  -0.0672   0.7901   1.0000
1.000   0.4257   0.00980   0.00424  -0.0662   0.7719   1.0000
1.250   0.4491   0.00982   0.00415  -0.0652   0.7537   1.0000
1.500   0.4727   0.00988   0.00410  -0.0642   0.7356   1.0000
1.750   0.4959   0.00996   0.00409  -0.0631   0.7163   1.0000
2.000   0.5193   0.01005   0.00410  -0.0621   0.6973   1.0000
2.250   0.5428   0.01017   0.00413  -0.0611   0.6786   1.0000
2.500   0.5663   0.01030   0.00417  -0.0601   0.6604   1.0000
2.750   0.5899   0.01045   0.00424  -0.0592   0.6427   1.0000
3.000   0.6136   0.01062   0.00432  -0.0582   0.6255   1.0000
3.250   0.6373   0.01080   0.00443  -0.0572   0.6088   1.0000
3.500   0.6610   0.01099   0.00456  -0.0563   0.5924   1.0000
3.750   0.6847   0.01119   0.00470  -0.0554   0.5757   1.0000
4.000   0.7080   0.01141   0.00483  -0.0543   0.5577   1.0000
4.250   0.7311   0.01161   0.00498  -0.0533   0.5375   1.0000
4.500   0.7543   0.01182   0.00515  -0.0522   0.5178   1.0000
4.750   0.7778   0.01205   0.00534  -0.0513   0.4995   1.0000
5.000   0.8010   0.01229   0.00554  -0.0503   0.4800   1.0000
5.250   0.8238   0.01256   0.00572  -0.0493   0.4589   1.0000
5.500   0.8465   0.01279   0.00593  -0.0482   0.4349   1.0000
5.750   0.8687   0.01309   0.00616  -0.0471   0.4112   1.0000
6.000   0.8911   0.01338   0.00642  -0.0461   0.3854   1.0000
6.250   0.9129   0.01373   0.00670  -0.0450   0.3582   1.0000
6.500   0.9339   0.01415   0.00702  -0.0438   0.3278   1.0000
6.750   0.9541   0.01465   0.00740  -0.0425   0.2937   1.0000
7.000   0.9731   0.01526   0.00785  -0.0411   0.2573   1.0000
7.250   0.9908   0.01600   0.00841  -0.0396   0.2186   1.0000
7.500   1.0067   0.01693   0.00909  -0.0378   0.1782   1.0000
7.750   1.0218   0.01795   0.00991  -0.0360   0.1446   1.0000
8.000   1.0370   0.01896   0.01076  -0.0341   0.1225   1.0000
8.250   1.0523   0.01995   0.01166  -0.0323   0.1086   1.0000
8.500   1.0679   0.02091   0.01261  -0.0305   0.0995   1.0000
9.000   1.0982   0.02292   0.01462  -0.0268   0.0875   1.0000
9.250   1.1137   0.02387   0.01556  -0.0251   0.0830   1.0000
9.500   1.1282   0.02523   0.01687  -0.0234   0.0794   1.0000
9.750   1.1448   0.02608   0.01784  -0.0218   0.0764   1.0000
10.000   1.1606   0.02701   0.01883  -0.0201   0.0733   1.0000
10.250   1.1764   0.02814   0.01993  -0.0187   0.0705   1.0000
10.500   1.1960   0.02971   0.02152  -0.0179   0.0678   1.0000
10.750   1.2108   0.03066   0.02263  -0.0162   0.0656   1.0000
11.000   1.2253   0.03171   0.02378  -0.0146   0.0632   1.0000
11.250   1.2401   0.03283   0.02494  -0.0132   0.0610   1.0000
11.500   1.2632   0.03501   0.02707  -0.0133   0.0582   1.0000
11.750   1.2711   0.03605   0.02834  -0.0109   0.0568   1.0000
12.000   1.2809   0.03736   0.02983  -0.0090   0.0549   1.0000
12.250   1.2900   0.03870   0.03129  -0.0072   0.0530   1.0000
12.500   1.3004   0.04002   0.03266  -0.0058   0.0513   1.0000
12.750   1.3189   0.04267   0.03530  -0.0055   0.0491   1.0000
13.000   1.3172   0.04432   0.03723  -0.0029   0.0482   1.0000
13.250   1.3163   0.04631   0.03947  -0.0008   0.0469   1.0000
13.500   1.3164   0.04839   0.04175   0.0008   0.0456   1.0000
13.750   1.3172   0.05044   0.04393   0.0021   0.0443   1.0000
14.000   1.3198   0.05245   0.04601   0.0031   0.0432   1.0000
14.250   1.3283   0.05480   0.04836   0.0038   0.0419   1.0000
14.500   1.3192   0.05878   0.05258   0.0048   0.0411   1.0000
14.750   1.3035   0.06249   0.05658   0.0053   0.0407   1.0000
15.000   1.2862   0.06682   0.06119   0.0051   0.0403   1.0000
15.250   1.2670   0.07177   0.06641   0.0041   0.0399   1.0000
15.500   1.2455   0.07741   0.07232   0.0024   0.0396   1.0000
15.750   1.2213   0.08386   0.07902  -0.0002   0.0395   1.0000
16.000   1.1937   0.09137   0.08677  -0.0038   0.0395   1.0000
16.250   1.1620   0.10031   0.09595  -0.0088   0.0397   1.0000
16.500   1.1260   0.11085   0.10672  -0.0151   0.0401   1.0000
16.750   1.0857   0.12339   0.11946  -0.0231   0.0406   1.0000
17.000   1.0415   0.13812   0.13433  -0.0322   0.0413   1.0000

XFOIL         Version 6.96

Calculated polar for: NACA 2412

1 1 Reynolds number fixed          Mach number fixed

xtrf =   1.000 (top)        1.000 (bottom)
Mach =   0.000     Re =     0.500 e 6     Ncrit =   9.000

alpha    CL        CD       CDp       CM     Top_Xtr  Bot_Xtr
------ -------- --------- --------- -------- -------- --------
-15.250  -0.8999   0.08481   0.08190  -0.0365   1.0000   0.0235
-15.000  -0.9520   0.07088   0.06775  -0.0463   1.0000   0.0232
-14.750  -0.9855   0.06054   0.05719  -0.0544   1.0000   0.0231
-14.500  -1.0072   0.05275   0.04918  -0.0609   1.0000   0.0232
-14.250  -1.0219   0.04686   0.04307  -0.0658   1.0000   0.0234
-14.000  -1.0318   0.04250   0.03849  -0.0688   1.0000   0.0237
-13.750  -1.0378   0.03941   0.03520  -0.0700   1.0000   0.0239
-13.500  -1.0497   0.03620   0.03177  -0.0694   1.0000   0.0242
-13.250  -1.0540   0.03399   0.02948  -0.0675   1.0000   0.0247
-13.000  -1.0488   0.03291   0.02838  -0.0656   1.0000   0.0252
-12.750  -1.0381   0.03207   0.02750  -0.0641   1.0000   0.0257
-12.500  -1.0273   0.03117   0.02652  -0.0626   1.0000   0.0264
-12.250  -1.0168   0.03019   0.02543  -0.0608   1.0000   0.0271
-12.000  -1.0065   0.02917   0.02426  -0.0589   1.0000   0.0278
-11.750  -0.9953   0.02829   0.02322  -0.0568   1.0000   0.0285
-11.500  -0.9869   0.02685   0.02159  -0.0545   1.0000   0.0291
-11.250  -0.9769   0.02537   0.02007  -0.0523   1.0000   0.0299
-11.000  -0.9620   0.02476   0.01944  -0.0505   1.0000   0.0307
-10.750  -0.9469   0.02420   0.01884  -0.0487   1.0000   0.0315
-10.500  -0.9318   0.02358   0.01813  -0.0467   1.0000   0.0324
-10.250  -0.9166   0.02293   0.01738  -0.0448   1.0000   0.0333
-10.000  -0.9007   0.02237   0.01668  -0.0429   1.0000   0.0340
-9.750  -0.8865   0.02130   0.01547  -0.0409   1.0000   0.0348
-9.500  -0.8719   0.02019   0.01434  -0.0390   1.0000   0.0359
-9.250  -0.8546   0.01966   0.01379  -0.0374   1.0000   0.0368
-9.000  -0.8367   0.01915   0.01325  -0.0358   1.0000   0.0378
-8.750  -0.8185   0.01864   0.01266  -0.0343   1.0000   0.0388
-8.500  -0.7877   0.01812   0.01206  -0.0353   0.9986   0.0400
-8.250  -0.7531   0.01769   0.01152  -0.0369   0.9966   0.0408
-8.000  -0.7217   0.01639   0.01017  -0.0383   0.9948   0.0424
-7.750  -0.6878   0.01581   0.00959  -0.0399   0.9928   0.0440
-7.500  -0.6543   0.01531   0.00904  -0.0413   0.9899   0.0454
-7.250  -0.6189   0.01480   0.00849  -0.0431   0.9873   0.0468
-7.000  -0.5811   0.01440   0.00801  -0.0453   0.9852   0.0482
-6.750  -0.5445   0.01360   0.00719  -0.0474   0.9832   0.0504
-6.500  -0.5126   0.01310   0.00669  -0.0484   0.9786   0.0525
-6.250  -0.4767   0.01269   0.00626  -0.0502   0.9759   0.0550
-6.000  -0.4394   0.01227   0.00580  -0.0522   0.9740   0.0582
-5.750  -0.4016   0.01177   0.00535  -0.0545   0.9725   0.0640
-5.500  -0.3704   0.01135   0.00495  -0.0552   0.9675   0.0715
-5.250  -0.3366   0.01094   0.00461  -0.0565   0.9637   0.0836
-5.000  -0.3017   0.01058   0.00430  -0.0580   0.9606   0.0980
-4.750  -0.2717   0.01028   0.00404  -0.0584   0.9549   0.1109
-4.500  -0.2416   0.00999   0.00379  -0.0588   0.9488   0.1241
-4.250  -0.2107   0.00969   0.00354  -0.0593   0.9438   0.1394
-4.000  -0.1846   0.00941   0.00333  -0.0588   0.9347   0.1573
-3.750  -0.1557   0.00913   0.00312  -0.0589   0.9283   0.1814
-3.500  -0.1299   0.00886   0.00295  -0.0583   0.9182   0.2093
-3.250  -0.1026   0.00860   0.00279  -0.0581   0.9096   0.2396
-3.000  -0.0758   0.00837   0.00265  -0.0577   0.8995   0.2712
-2.750  -0.0492   0.00815   0.00253  -0.0573   0.8888   0.3069
-2.500  -0.0223   0.00792   0.00240  -0.0570   0.8783   0.3436
-2.250   0.0042   0.00769   0.00228  -0.0566   0.8667   0.3827
-2.000   0.0306   0.00747   0.00219  -0.0562   0.8542   0.4278
-1.750   0.0569   0.00724   0.00211  -0.0558   0.8416   0.4810
-1.500   0.0830   0.00703   0.00205  -0.0553   0.8288   0.5417
-1.250   0.1092   0.00686   0.00200  -0.0547   0.8155   0.5954
-1.000   0.1353   0.00672   0.00197  -0.0541   0.8015   0.6434
-0.500   0.1867   0.00646   0.00195  -0.0527   0.7718   0.7418
-0.250   0.2118   0.00637   0.00197  -0.0518   0.7562   0.7912
0.000   0.2360   0.00630   0.00202  -0.0505   0.7403   0.8463
0.250   0.2601   0.00630   0.00208  -0.0491   0.7238   0.8941
0.500   0.2864   0.00637   0.00213  -0.0483   0.7067   0.9264
0.750   0.3169   0.00648   0.00217  -0.0485   0.6888   0.9475
1.000   0.3503   0.00661   0.00221  -0.0494   0.6701   0.9637
1.250   0.3860   0.00674   0.00226  -0.0509   0.6502   0.9757
1.500   0.4242   0.00688   0.00231  -0.0530   0.6294   0.9845
1.750   0.4653   0.00704   0.00235  -0.0558   0.6084   0.9908
2.000   0.5062   0.00720   0.00240  -0.0586   0.5888   0.9965
2.250   0.5424   0.00733   0.00246  -0.0605   0.5710   1.0000
2.500   0.5662   0.00744   0.00250  -0.0597   0.5553   1.0000
2.750   0.5899   0.00757   0.00256  -0.0589   0.5400   1.0000
3.000   0.6135   0.00771   0.00263  -0.0580   0.5230   1.0000
3.250   0.6371   0.00786   0.00270  -0.0572   0.5055   1.0000
3.500   0.6608   0.00801   0.00280  -0.0563   0.4892   1.0000
3.750   0.6846   0.00817   0.00290  -0.0555   0.4724   1.0000
4.000   0.7085   0.00833   0.00301  -0.0546   0.4553   1.0000
4.250   0.7321   0.00852   0.00313  -0.0538   0.4346   1.0000
4.500   0.7553   0.00875   0.00326  -0.0528   0.4121   1.0000
4.750   0.7791   0.00896   0.00340  -0.0520   0.3915   1.0000
5.000   0.8030   0.00920   0.00357  -0.0512   0.3692   1.0000
5.250   0.8265   0.00948   0.00375  -0.0504   0.3462   1.0000
5.500   0.8502   0.00978   0.00396  -0.0497   0.3204   1.0000
5.750   0.8734   0.01013   0.00420  -0.0489   0.2928   1.0000
6.000   0.8963   0.01053   0.00447  -0.0480   0.2639   1.0000
6.250   0.9188   0.01098   0.00477  -0.0472   0.2341   1.0000
6.500   0.9410   0.01147   0.00511  -0.0463   0.2038   1.0000
6.750   0.9628   0.01200   0.00550  -0.0453   0.1738   1.0000
7.000   0.9843   0.01257   0.00591  -0.0444   0.1443   1.0000
7.250   1.0051   0.01320   0.00637  -0.0433   0.1160   1.0000
7.500   1.0257   0.01383   0.00688  -0.0422   0.0954   1.0000
7.750   1.0464   0.01445   0.00742  -0.0411   0.0820   1.0000
8.000   1.0679   0.01498   0.00793  -0.0402   0.0732   1.0000
8.250   1.0884   0.01558   0.00851  -0.0390   0.0667   1.0000
8.500   1.1097   0.01609   0.00903  -0.0380   0.0624   1.0000
8.750   1.1276   0.01685   0.00978  -0.0365   0.0581   1.0000
9.000   1.1494   0.01727   0.01026  -0.0356   0.0559   1.0000
9.250   1.1699   0.01778   0.01080  -0.0345   0.0535   1.0000
9.500   1.1880   0.01843   0.01146  -0.0331   0.0512   1.0000
9.750   1.2022   0.01932   0.01239  -0.0312   0.0490   1.0000
10.000   1.2216   0.01981   0.01294  -0.0299   0.0477   1.0000
10.250   1.2383   0.02036   0.01354  -0.0283   0.0461   1.0000
10.500   1.2536   0.02096   0.01419  -0.0265   0.0446   1.0000
10.750   1.2666   0.02174   0.01499  -0.0245   0.0431   1.0000
11.000   1.2720   0.02305   0.01633  -0.0216   0.0415   1.0000
11.250   1.2875   0.02371   0.01709  -0.0201   0.0406   1.0000
11.500   1.3022   0.02444   0.01789  -0.0186   0.0394   1.0000
11.750   1.3157   0.02526   0.01878  -0.0171   0.0381   1.0000
12.000   1.3281   0.02618   0.01975  -0.0156   0.0369   1.0000
12.250   1.3363   0.02745   0.02104  -0.0139   0.0357   1.0000
12.500   1.3383   0.02930   0.02295  -0.0117   0.0345   1.0000
12.750   1.3516   0.03026   0.02403  -0.0107   0.0336   1.0000
13.000   1.3628   0.03143   0.02529  -0.0096   0.0325   1.0000
13.250   1.3727   0.03275   0.02667  -0.0086   0.0314   1.0000
13.500   1.3809   0.03426   0.02824  -0.0077   0.0305   1.0000
13.750   1.3838   0.03631   0.03033  -0.0067   0.0296   1.0000
14.000   1.3838   0.03874   0.03285  -0.0056   0.0287   1.0000
14.250   1.3917   0.04051   0.03475  -0.0052   0.0279   1.0000
14.500   1.3976   0.04251   0.03687  -0.0048   0.0270   1.0000
14.750   1.4025   0.04470   0.03914  -0.0047   0.0262   1.0000
15.000   1.4063   0.04706   0.04157  -0.0047   0.0254   1.0000
15.250   1.4070   0.04981   0.04438  -0.0049   0.0248   1.0000
15.500   1.3999   0.05341   0.04803  -0.0048   0.0241   1.0000
15.750   1.4008   0.05640   0.05116  -0.0053   0.0236   1.0000
16.000   1.4007   0.05959   0.05451  -0.0060   0.0230   1.0000
16.250   1.3992   0.06303   0.05807  -0.0068   0.0224   1.0000
16.500   1.3966   0.06670   0.06185  -0.0079   0.0219   1.0000
16.750   1.3936   0.07052   0.06576  -0.0091   0.0214   1.0000
17.000   1.3896   0.07453   0.06986  -0.0104   0.0210   1.0000
17.250   1.3842   0.07879   0.07421  -0.0119   0.0206   1.0000
17.500   1.3769   0.08337   0.07885  -0.0136   0.0203   1.0000
17.750   1.3662   0.08827   0.08382  -0.0150   0.0198   1.0000
18.000   1.3573   0.09332   0.08901  -0.0171   0.0196   1.0000
18.250   1.3482   0.09861   0.09446  -0.0194   0.0193   1.0000
18.500   1.3382   0.10412   0.10011  -0.0219   0.0190   1.0000
18.750   1.3276   0.10980   0.10593  -0.0245   0.0187   1.0000
19.000   1.3169   0.11559   0.11185  -0.0273   0.0184   1.0000

XFOIL         Version 6.96

Calculated polar for: NACA 2412

1 1 Reynolds number fixed          Mach number fixed

xtrf =   1.000 (top)        1.000 (bottom)
Mach =   0.000     Re =     1.000 e 6     Ncrit =   9.000

alpha    CL        CD       CDp       CM     Top_Xtr  Bot_Xtr
------ -------- --------- --------- -------- -------- --------
-17.500  -1.1118   0.08608   0.08340  -0.0338   1.0000   0.0150
-17.250  -1.1738   0.07238   0.06950  -0.0418   1.0000   0.0147
-17.000  -1.2296   0.05928   0.05617  -0.0502   1.0000   0.0145
-16.750  -1.2629   0.04931   0.04600  -0.0575   1.0000   0.0145
-16.500  -1.2790   0.04253   0.03904  -0.0630   1.0000   0.0146
-16.250  -1.2852   0.03792   0.03430  -0.0665   1.0000   0.0148
-16.000  -1.2869   0.03455   0.03080  -0.0685   1.0000   0.0150
-15.750  -1.2853   0.03207   0.02820  -0.0693   1.0000   0.0153
-15.500  -1.2815   0.03016   0.02619  -0.0692   1.0000   0.0156
-15.250  -1.2755   0.02867   0.02460  -0.0684   1.0000   0.0159
-15.000  -1.2674   0.02752   0.02333  -0.0671   1.0000   0.0161
-14.750  -1.2667   0.02608   0.02179  -0.0647   1.0000   0.0165
-14.500  -1.2585   0.02491   0.02057  -0.0629   1.0000   0.0171
-14.250  -1.2429   0.02417   0.01979  -0.0618   1.0000   0.0176
-14.000  -1.2251   0.02358   0.01917  -0.0608   1.0000   0.0181
-13.750  -1.2068   0.02304   0.01857  -0.0597   1.0000   0.0187
-13.500  -1.1881   0.02254   0.01802  -0.0586   1.0000   0.0192
-13.250  -1.1690   0.02212   0.01752  -0.0575   1.0000   0.0197
-13.000  -1.1561   0.02124   0.01656  -0.0556   1.0000   0.0203
-12.750  -1.1417   0.02051   0.01580  -0.0538   1.0000   0.0209
-12.500  -1.1239   0.02009   0.01536  -0.0523   1.0000   0.0215
-12.250  -1.1058   0.01971   0.01495  -0.0508   1.0000   0.0220
-12.000  -1.0881   0.01933   0.01452  -0.0492   1.0000   0.0226
-11.750  -1.0704   0.01896   0.01410  -0.0475   1.0000   0.0232
-11.500  -1.0519   0.01868   0.01375  -0.0459   1.0000   0.0237
-11.250  -1.0327   0.01847   0.01350  -0.0444   1.0000   0.0240
-11.000  -1.0222   0.01737   0.01233  -0.0419   1.0000   0.0250
-10.750  -1.0046   0.01696   0.01190  -0.0402   1.0000   0.0257
-10.500  -0.9766   0.01657   0.01149  -0.0406   0.9993   0.0264
-10.250  -0.9448   0.01617   0.01105  -0.0418   0.9981   0.0272
-10.000  -0.9125   0.01582   0.01065  -0.0430   0.9968   0.0280
-9.750  -0.8793   0.01556   0.01034  -0.0443   0.9956   0.0286
-9.500  -0.8484   0.01474   0.00944  -0.0455   0.9945   0.0296
-9.250  -0.8172   0.01411   0.00879  -0.0467   0.9932   0.0306
-9.000  -0.7863   0.01373   0.00840  -0.0475   0.9911   0.0315
-8.750  -0.7542   0.01336   0.00801  -0.0486   0.9892   0.0324
-8.500  -0.7211   0.01301   0.00762  -0.0499   0.9876   0.0333
-8.250  -0.6870   0.01271   0.00728  -0.0514   0.9863   0.0340
-8.000  -0.6520   0.01227   0.00679  -0.0530   0.9851   0.0347
-7.750  -0.6166   0.01161   0.00610  -0.0550   0.9840   0.0364
-7.500  -0.5850   0.01122   0.00571  -0.0558   0.9805   0.0375
-7.250  -0.5532   0.01089   0.00535  -0.0567   0.9773   0.0386
-7.000  -0.5207   0.01059   0.00503  -0.0578   0.9746   0.0398
-6.750  -0.4884   0.01033   0.00474  -0.0587   0.9720   0.0407
-6.500  -0.4627   0.00998   0.00435  -0.0582   0.9655   0.0422
-6.250  -0.4342   0.00964   0.00402  -0.0582   0.9607   0.0445
-6.000  -0.4073   0.00939   0.00376  -0.0579   0.9544   0.0467
-5.750  -0.3804   0.00916   0.00351  -0.0576   0.9477   0.0495
-5.500  -0.3538   0.00887   0.00325  -0.0573   0.9407   0.0558
-5.250  -0.3274   0.00860   0.00302  -0.0568   0.9327   0.0655
-5.000  -0.3006   0.00836   0.00282  -0.0565   0.9247   0.0775
-4.750  -0.2737   0.00816   0.00265  -0.0562   0.9158   0.0886
-4.500  -0.2465   0.00798   0.00249  -0.0560   0.9066   0.0982
-4.000  -0.1918   0.00768   0.00219  -0.0555   0.8864   0.1175
-3.750  -0.1645   0.00752   0.00205  -0.0553   0.8758   0.1310
-3.500  -0.1372   0.00737   0.00192  -0.0551   0.8645   0.1482
-3.250  -0.1100   0.00719   0.00180  -0.0549   0.8525   0.1711
-3.000  -0.0825   0.00704   0.00170  -0.0547   0.8404   0.1957
-2.750  -0.0552   0.00689   0.00160  -0.0546   0.8278   0.2215
-2.500  -0.0277   0.00678   0.00152  -0.0544   0.8151   0.2471
-2.250  -0.0003   0.00666   0.00146  -0.0542   0.8016   0.2776
-2.000   0.0272   0.00653   0.00140  -0.0541   0.7879   0.3097
-1.750   0.0546   0.00640   0.00134  -0.0540   0.7740   0.3442
-1.500   0.0819   0.00628   0.00129  -0.0538   0.7597   0.3795
-1.250   0.1092   0.00616   0.00125  -0.0536   0.7451   0.4198
-1.000   0.1362   0.00602   0.00122  -0.0534   0.7296   0.4712
-0.750   0.1632   0.00589   0.00121  -0.0532   0.7137   0.5267
-0.500   0.1903   0.00580   0.00120  -0.0530   0.6972   0.5727
-0.250   0.2173   0.00573   0.00121  -0.0527   0.6799   0.6158
0.000   0.2442   0.00568   0.00122  -0.0525   0.6618   0.6597
0.250   0.2709   0.00563   0.00124  -0.0521   0.6430   0.7009
0.500   0.2968   0.00556   0.00127  -0.0516   0.6240   0.7569
0.750   0.3217   0.00548   0.00134  -0.0507   0.6051   0.8207
1.000   0.3469   0.00547   0.00140  -0.0499   0.5862   0.8656
1.250   0.3722   0.00552   0.00147  -0.0491   0.5680   0.8993
1.500   0.3979   0.00559   0.00154  -0.0484   0.5517   0.9263
1.750   0.4250   0.00569   0.00161  -0.0480   0.5373   0.9484
2.000   0.4549   0.00581   0.00168  -0.0482   0.5228   0.9646
2.750   0.5582   0.00624   0.00191  -0.0524   0.4730   0.9901
3.000   0.5945   0.00639   0.00200  -0.0542   0.4573   0.9943
3.250   0.6318   0.00654   0.00208  -0.0563   0.4371   0.9972
3.500   0.6686   0.00674   0.00218  -0.0584   0.4148   1.0000
3.750   0.6918   0.00692   0.00226  -0.0575   0.3916   1.0000
4.000   0.7153   0.00711   0.00236  -0.0566   0.3698   1.0000
4.250   0.7389   0.00730   0.00247  -0.0557   0.3502   1.0000
4.500   0.7624   0.00752   0.00260  -0.0549   0.3292   1.0000
4.750   0.7858   0.00776   0.00274  -0.0540   0.3054   1.0000
5.000   0.8089   0.00804   0.00291  -0.0531   0.2805   1.0000
5.250   0.8319   0.00836   0.00311  -0.0522   0.2542   1.0000
5.500   0.8552   0.00869   0.00332  -0.0513   0.2278   1.0000
5.750   0.8784   0.00906   0.00356  -0.0505   0.2013   1.0000
6.000   0.9016   0.00945   0.00381  -0.0497   0.1762   1.0000
6.250   0.9251   0.00983   0.00408  -0.0490   0.1528   1.0000
6.500   0.9483   0.01025   0.00438  -0.0482   0.1290   1.0000
6.750   0.9710   0.01073   0.00471  -0.0474   0.1052   1.0000
7.000   0.9944   0.01114   0.00504  -0.0467   0.0892   1.0000
7.250   1.0179   0.01153   0.00537  -0.0460   0.0774   1.0000
7.500   1.0414   0.01194   0.00572  -0.0453   0.0671   1.0000
7.750   1.0644   0.01238   0.00609  -0.0446   0.0583   1.0000
8.000   1.0885   0.01270   0.00642  -0.0440   0.0541   1.0000
8.250   1.1111   0.01317   0.00685  -0.0431   0.0491   1.0000
8.500   1.1353   0.01347   0.00717  -0.0426   0.0470   1.0000
8.750   1.1585   0.01385   0.00755  -0.0419   0.0447   1.0000
9.000   1.1801   0.01435   0.00805  -0.0409   0.0419   1.0000
9.250   1.2032   0.01471   0.00844  -0.0402   0.0407   1.0000
9.500   1.2262   0.01506   0.00882  -0.0395   0.0395   1.0000
9.750   1.2485   0.01545   0.00923  -0.0387   0.0382   1.0000
10.000   1.2696   0.01591   0.00970  -0.0378   0.0367   1.0000
10.250   1.2881   0.01655   0.01036  -0.0364   0.0350   1.0000
10.500   1.3090   0.01697   0.01083  -0.0354   0.0342   1.0000
10.750   1.3299   0.01737   0.01127  -0.0344   0.0334   1.0000
11.000   1.3500   0.01780   0.01173  -0.0333   0.0324   1.0000
11.250   1.3684   0.01825   0.01221  -0.0320   0.0313   1.0000
11.500   1.3833   0.01884   0.01282  -0.0301   0.0302   1.0000
11.750   1.3931   0.01974   0.01376  -0.0275   0.0289   1.0000
12.000   1.4114   0.02015   0.01423  -0.0262   0.0283   1.0000
12.250   1.4284   0.02066   0.01478  -0.0249   0.0275   1.0000
12.500   1.4446   0.02122   0.01538  -0.0235   0.0266   1.0000
12.750   1.4595   0.02187   0.01606  -0.0220   0.0256   1.0000
13.000   1.4699   0.02284   0.01705  -0.0201   0.0245   1.0000
13.250   1.4815   0.02375   0.01803  -0.0184   0.0237   1.0000
13.500   1.4967   0.02445   0.01879  -0.0172   0.0230   1.0000
13.750   1.5106   0.02526   0.01965  -0.0160   0.0221   1.0000
14.000   1.5228   0.02622   0.02064  -0.0147   0.0212   1.0000
14.250   1.5311   0.02751   0.02196  -0.0133   0.0203   1.0000
14.500   1.5386   0.02893   0.02345  -0.0120   0.0195   1.0000
14.750   1.5499   0.03008   0.02468  -0.0110   0.0188   1.0000
15.000   1.5597   0.03141   0.02607  -0.0101   0.0181   1.0000
15.250   1.5675   0.03297   0.02767  -0.0093   0.0173   1.0000
15.500   1.5712   0.03497   0.02971  -0.0084   0.0166   1.0000
15.750   1.5723   0.03733   0.03215  -0.0077   0.0160   1.0000
16.000   1.5775   0.03935   0.03427  -0.0073   0.0156   1.0000
16.250   1.5806   0.04166   0.03666  -0.0070   0.0151   1.0000
16.500   1.5820   0.04423   0.03933  -0.0069   0.0147   1.0000
16.750   1.5815   0.04711   0.04228  -0.0070   0.0143   1.0000
17.000   1.5784   0.05040   0.04566  -0.0073   0.0139   1.0000
17.250   1.5716   0.05428   0.04963  -0.0080   0.0135   1.0000
17.500   1.5603   0.05893   0.05438  -0.0090   0.0132   1.0000
17.750   1.5483   0.06380   0.05937  -0.0104   0.0129   1.0000
18.000   1.5415   0.06805   0.06374  -0.0116   0.0128   1.0000
18.250   1.5328   0.07268   0.06849  -0.0130   0.0126   1.0000
18.500   1.5214   0.07778   0.07370  -0.0148   0.0125   1.0000
18.750   1.5083   0.08321   0.07925  -0.0167   0.0123   1.0000
19.000   1.4942   0.08893   0.08508  -0.0189   0.0122   1.0000
19.250   1.4781   0.09506   0.09134  -0.0213   0.0121   1.0000
